
---------- Begin Simulation Statistics ----------
sim_seconds                                  0.044107                       # Number of seconds simulated
sim_ticks                                 44107242500                       # Number of ticks simulated
final_tick                                44107242500                       # Number of ticks from beginning of simulation (restored from checkpoints and never reset)
sim_freq                                 1000000000000                       # Frequency of simulated ticks
host_inst_rate                                 303263                       # Simulator instruction rate (inst/s)
host_op_rate                                   556797                       # Simulator op (including micro ops) rate (op/s)
host_tick_rate                              587331215                       # Simulator tick rate (ticks/s)
host_mem_usage                                4569344                       # Number of bytes of host memory used
host_seconds                                    75.10                       # Real time elapsed on the host
sim_insts                                    22774369                       # Number of instructions simulated
sim_ops                                      41814173                       # Number of ops (including micro ops) simulated
system.voltage_domain.voltage                       1                       # Voltage in Volts
system.clk_domain.clock                          1000                       # Clock period in ticks
system.mem_ctrls.bytes_read::ruby.dir_cntrl0      6956672                       # Number of bytes read from this memory
system.mem_ctrls.bytes_read::total            6956672                       # Number of bytes read from this memory
system.mem_ctrls.bytes_written::ruby.dir_cntrl0      4451328                       # Number of bytes written to this memory
system.mem_ctrls.bytes_written::total         4451328                       # Number of bytes written to this memory
system.mem_ctrls.num_reads::ruby.dir_cntrl0        54349                       # Number of read requests responded to by this memory
system.mem_ctrls.num_reads::total               54349                       # Number of read requests responded to by this memory
system.mem_ctrls.num_writes::ruby.dir_cntrl0        34776                       # Number of write requests responded to by this memory
system.mem_ctrls.num_writes::total              34776                       # Number of write requests responded to by this memory
system.mem_ctrls.bw_read::ruby.dir_cntrl0    157721762                       # Total read bandwidth from this memory (bytes/s)
system.mem_ctrls.bw_read::total             157721762                       # Total read bandwidth from this memory (bytes/s)
system.mem_ctrls.bw_write::ruby.dir_cntrl0    100920569                       # Write bandwidth from this memory (bytes/s)
system.mem_ctrls.bw_write::total            100920569                       # Write bandwidth from this memory (bytes/s)
system.mem_ctrls.bw_total::ruby.dir_cntrl0    258642331                       # Total bandwidth to/from this memory (bytes/s)
system.mem_ctrls.bw_total::total            258642331                       # Total bandwidth to/from this memory (bytes/s)
system.mem_ctrls.readReqs                       54349                       # Number of read requests accepted
system.mem_ctrls.writeReqs                      34776                       # Number of write requests accepted
system.mem_ctrls.readBursts                    108698                       # Number of DRAM read bursts, including those serviced by the write queue
system.mem_ctrls.writeBursts                    69552                       # Number of DRAM write bursts, including those merged in the write queue
system.mem_ctrls.bytesReadDRAM                6951616                       # Total number of bytes read from DRAM
system.mem_ctrls.bytesReadWrQ                    5056                       # Total number of bytes read from write queue
system.mem_ctrls.bytesWritten                 4449280                       # Total number of bytes written to DRAM
system.mem_ctrls.bytesReadSys                 6956672                       # Total read bytes from the system interface side
system.mem_ctrls.bytesWrittenSys              4451328                       # Total written bytes from the system interface side
system.mem_ctrls.servicedByWrQ                     79                       # Number of DRAM read bursts serviced by the write queue
system.mem_ctrls.mergedWrBursts                     0                       # Number of DRAM write bursts merged with an existing one
system.mem_ctrls.neitherReadNorWriteReqs            0                       # Number of requests that are neither read nor write
system.mem_ctrls.perBankRdBursts::0              7288                       # Per bank write bursts
system.mem_ctrls.perBankRdBursts::1              6610                       # Per bank write bursts
system.mem_ctrls.perBankRdBursts::2              6910                       # Per bank write bursts
system.mem_ctrls.perBankRdBursts::3              6938                       # Per bank write bursts
system.mem_ctrls.perBankRdBursts::4              6760                       # Per bank write bursts
system.mem_ctrls.perBankRdBursts::5              6524                       # Per bank write bursts
system.mem_ctrls.perBankRdBursts::6              6328                       # Per bank write bursts
system.mem_ctrls.perBankRdBursts::7              6636                       # Per bank write bursts
system.mem_ctrls.perBankRdBursts::8              6770                       # Per bank write bursts
system.mem_ctrls.perBankRdBursts::9              6488                       # Per bank write bursts
system.mem_ctrls.perBankRdBursts::10             7102                       # Per bank write bursts
system.mem_ctrls.perBankRdBursts::11             7019                       # Per bank write bursts
system.mem_ctrls.perBankRdBursts::12             6628                       # Per bank write bursts
system.mem_ctrls.perBankRdBursts::13             6720                       # Per bank write bursts
system.mem_ctrls.perBankRdBursts::14             6674                       # Per bank write bursts
system.mem_ctrls.perBankRdBursts::15             7224                       # Per bank write bursts
system.mem_ctrls.perBankWrBursts::0              4864                       # Per bank write bursts
system.mem_ctrls.perBankWrBursts::1              4274                       # Per bank write bursts
system.mem_ctrls.perBankWrBursts::2              4528                       # Per bank write bursts
system.mem_ctrls.perBankWrBursts::3              4560                       # Per bank write bursts
system.mem_ctrls.perBankWrBursts::4              4212                       # Per bank write bursts
system.mem_ctrls.perBankWrBursts::5              3944                       # Per bank write bursts
system.mem_ctrls.perBankWrBursts::6              3884                       # Per bank write bursts
system.mem_ctrls.perBankWrBursts::7              4116                       # Per bank write bursts
system.mem_ctrls.perBankWrBursts::8              4122                       # Per bank write bursts
system.mem_ctrls.perBankWrBursts::9              4096                       # Per bank write bursts
system.mem_ctrls.perBankWrBursts::10             4354                       # Per bank write bursts
system.mem_ctrls.perBankWrBursts::11             4416                       # Per bank write bursts
system.mem_ctrls.perBankWrBursts::12             4420                       # Per bank write bursts
system.mem_ctrls.perBankWrBursts::13             4476                       # Per bank write bursts
system.mem_ctrls.perBankWrBursts::14             4396                       # Per bank write bursts
system.mem_ctrls.perBankWrBursts::15             4858                       # Per bank write bursts
system.mem_ctrls.numRdRetry                      9128                       # Number of times read queue was full causing retry
system.mem_ctrls.numWrRetry                       584                       # Number of times write queue was full causing retry
system.mem_ctrls.totGap                   44107146000                       # Total gap between requests
system.mem_ctrls.readPktSize::0                     0                       # Read request sizes (log2)
system.mem_ctrls.readPktSize::1                     0                       # Read request sizes (log2)
system.mem_ctrls.readPktSize::2                     0                       # Read request sizes (log2)
system.mem_ctrls.readPktSize::3                     0                       # Read request sizes (log2)
system.mem_ctrls.readPktSize::4                     0                       # Read request sizes (log2)
system.mem_ctrls.readPktSize::5                     0                       # Read request sizes (log2)
system.mem_ctrls.readPktSize::6                108698                       # Read request sizes (log2)
system.mem_ctrls.writePktSize::0                    0                       # Write request sizes (log2)
system.mem_ctrls.writePktSize::1                    0                       # Write request sizes (log2)
system.mem_ctrls.writePktSize::2                    0                       # Write request sizes (log2)
system.mem_ctrls.writePktSize::3                    0                       # Write request sizes (log2)
system.mem_ctrls.writePktSize::4                    0                       # Write request sizes (log2)
system.mem_ctrls.writePktSize::5                    0                       # Write request sizes (log2)
system.mem_ctrls.writePktSize::6                69552                       # Write request sizes (log2)
system.mem_ctrls.rdQLenPdf::0                   30456                       # What read queue length does an incoming req see
system.mem_ctrls.rdQLenPdf::1                   30643                       # What read queue length does an incoming req see
system.mem_ctrls.rdQLenPdf::2                    1923                       # What read queue length does an incoming req see
system.mem_ctrls.rdQLenPdf::3                    2382                       # What read queue length does an incoming req see
system.mem_ctrls.rdQLenPdf::4                    3595                       # What read queue length does an incoming req see
system.mem_ctrls.rdQLenPdf::5                    4387                       # What read queue length does an incoming req see
system.mem_ctrls.rdQLenPdf::6                    4718                       # What read queue length does an incoming req see
system.mem_ctrls.rdQLenPdf::7                    4131                       # What read queue length does an incoming req see
system.mem_ctrls.rdQLenPdf::8                    3295                       # What read queue length does an incoming req see
system.mem_ctrls.rdQLenPdf::9                    2906                       # What read queue length does an incoming req see
system.mem_ctrls.rdQLenPdf::10                   2471                       # What read queue length does an incoming req see
system.mem_ctrls.rdQLenPdf::11                   2332                       # What read queue length does an incoming req see
system.mem_ctrls.rdQLenPdf::12                   1892                       # What read queue length does an incoming req see
system.mem_ctrls.rdQLenPdf::13                   1624                       # What read queue length does an incoming req see
system.mem_ctrls.rdQLenPdf::14                    970                       # What read queue length does an incoming req see
system.mem_ctrls.rdQLenPdf::15                    931                       # What read queue length does an incoming req see
system.mem_ctrls.rdQLenPdf::16                     74                       # What read queue length does an incoming req see
system.mem_ctrls.rdQLenPdf::17                     76                       # What read queue length does an incoming req see
system.mem_ctrls.rdQLenPdf::18                     65                       # What read queue length does an incoming req see
system.mem_ctrls.rdQLenPdf::19                     61                       # What read queue length does an incoming req see
system.mem_ctrls.rdQLenPdf::20                     46                       # What read queue length does an incoming req see
system.mem_ctrls.rdQLenPdf::21                     42                       # What read queue length does an incoming req see
system.mem_ctrls.rdQLenPdf::22                     38                       # What read queue length does an incoming req see
system.mem_ctrls.rdQLenPdf::23                     34                       # What read queue length does an incoming req see
system.mem_ctrls.rdQLenPdf::24                     33                       # What read queue length does an incoming req see
system.mem_ctrls.rdQLenPdf::25                     37                       # What read queue length does an incoming req see
system.mem_ctrls.rdQLenPdf::26                     42                       # What read queue length does an incoming req see
system.mem_ctrls.rdQLenPdf::27                     38                       # What read queue length does an incoming req see
system.mem_ctrls.rdQLenPdf::28                     53                       # What read queue length does an incoming req see
system.mem_ctrls.rdQLenPdf::29                     59                       # What read queue length does an incoming req see
system.mem_ctrls.rdQLenPdf::30                   4639                       # What read queue length does an incoming req see
system.mem_ctrls.rdQLenPdf::31                   4626                       # What read queue length does an incoming req see
system.mem_ctrls.wrQLenPdf::0                       1                       # What write queue length does an incoming req see
system.mem_ctrls.wrQLenPdf::1                       1                       # What write queue length does an incoming req see
system.mem_ctrls.wrQLenPdf::2                       1                       # What write queue length does an incoming req see
system.mem_ctrls.wrQLenPdf::3                       1                       # What write queue length does an incoming req see
system.mem_ctrls.wrQLenPdf::4                       1                       # What write queue length does an incoming req see
system.mem_ctrls.wrQLenPdf::5                       1                       # What write queue length does an incoming req see
system.mem_ctrls.wrQLenPdf::6                       1                       # What write queue length does an incoming req see
system.mem_ctrls.wrQLenPdf::7                       1                       # What write queue length does an incoming req see
system.mem_ctrls.wrQLenPdf::8                       1                       # What write queue length does an incoming req see
system.mem_ctrls.wrQLenPdf::9                       1                       # What write queue length does an incoming req see
system.mem_ctrls.wrQLenPdf::10                      1                       # What write queue length does an incoming req see
system.mem_ctrls.wrQLenPdf::11                      1                       # What write queue length does an incoming req see
system.mem_ctrls.wrQLenPdf::12                      1                       # What write queue length does an incoming req see
system.mem_ctrls.wrQLenPdf::13                      1                       # What write queue length does an incoming req see
system.mem_ctrls.wrQLenPdf::14                      1                       # What write queue length does an incoming req see
system.mem_ctrls.wrQLenPdf::15                    111                       # What write queue length does an incoming req see
system.mem_ctrls.wrQLenPdf::16                    119                       # What write queue length does an incoming req see
system.mem_ctrls.wrQLenPdf::17                   2452                       # What write queue length does an incoming req see
system.mem_ctrls.wrQLenPdf::18                   2514                       # What write queue length does an incoming req see
system.mem_ctrls.wrQLenPdf::19                   2578                       # What write queue length does an incoming req see
system.mem_ctrls.wrQLenPdf::20                   2631                       # What write queue length does an incoming req see
system.mem_ctrls.wrQLenPdf::21                   2862                       # What write queue length does an incoming req see
system.mem_ctrls.wrQLenPdf::22                   2984                       # What write queue length does an incoming req see
system.mem_ctrls.wrQLenPdf::23                   3428                       # What write queue length does an incoming req see
system.mem_ctrls.wrQLenPdf::24                   3731                       # What write queue length does an incoming req see
system.mem_ctrls.wrQLenPdf::25                   4089                       # What write queue length does an incoming req see
system.mem_ctrls.wrQLenPdf::26                   4300                       # What write queue length does an incoming req see
system.mem_ctrls.wrQLenPdf::27                   4472                       # What write queue length does an incoming req see
system.mem_ctrls.wrQLenPdf::28                   4493                       # What write queue length does an incoming req see
system.mem_ctrls.wrQLenPdf::29                   4597                       # What write queue length does an incoming req see
system.mem_ctrls.wrQLenPdf::30                   4592                       # What write queue length does an incoming req see
system.mem_ctrls.wrQLenPdf::31                   4487                       # What write queue length does an incoming req see
system.mem_ctrls.wrQLenPdf::32                   4433                       # What write queue length does an incoming req see
system.mem_ctrls.wrQLenPdf::33                   1083                       # What write queue length does an incoming req see
system.mem_ctrls.wrQLenPdf::34                    549                       # What write queue length does an incoming req see
system.mem_ctrls.wrQLenPdf::35                    367                       # What write queue length does an incoming req see
system.mem_ctrls.wrQLenPdf::36                    315                       # What write queue length does an incoming req see
system.mem_ctrls.wrQLenPdf::37                    255                       # What write queue length does an incoming req see
system.mem_ctrls.wrQLenPdf::38                    200                       # What write queue length does an incoming req see
system.mem_ctrls.wrQLenPdf::39                    176                       # What write queue length does an incoming req see
system.mem_ctrls.wrQLenPdf::40                    162                       # What write queue length does an incoming req see
system.mem_ctrls.wrQLenPdf::41                    193                       # What write queue length does an incoming req see
system.mem_ctrls.wrQLenPdf::42                    167                       # What write queue length does an incoming req see
system.mem_ctrls.wrQLenPdf::43                    172                       # What write queue length does an incoming req see
system.mem_ctrls.wrQLenPdf::44                    155                       # What write queue length does an incoming req see
system.mem_ctrls.wrQLenPdf::45                    196                       # What write queue length does an incoming req see
system.mem_ctrls.wrQLenPdf::46                    190                       # What write queue length does an incoming req see
system.mem_ctrls.wrQLenPdf::47                    281                       # What write queue length does an incoming req see
system.mem_ctrls.wrQLenPdf::48                    279                       # What write queue length does an incoming req see
system.mem_ctrls.wrQLenPdf::49                    376                       # What write queue length does an incoming req see
system.mem_ctrls.wrQLenPdf::50                    381                       # What write queue length does an incoming req see
system.mem_ctrls.wrQLenPdf::51                    456                       # What write queue length does an incoming req see
system.mem_ctrls.wrQLenPdf::52                    464                       # What write queue length does an incoming req see
system.mem_ctrls.wrQLenPdf::53                    586                       # What write queue length does an incoming req see
system.mem_ctrls.wrQLenPdf::54                    680                       # What write queue length does an incoming req see
system.mem_ctrls.wrQLenPdf::55                    604                       # What write queue length does an incoming req see
system.mem_ctrls.wrQLenPdf::56                    552                       # What write queue length does an incoming req see
system.mem_ctrls.wrQLenPdf::57                    315                       # What write queue length does an incoming req see
system.mem_ctrls.wrQLenPdf::58                    289                       # What write queue length does an incoming req see
system.mem_ctrls.wrQLenPdf::59                    178                       # What write queue length does an incoming req see
system.mem_ctrls.wrQLenPdf::60                    165                       # What write queue length does an incoming req see
system.mem_ctrls.wrQLenPdf::61                    133                       # What write queue length does an incoming req see
system.mem_ctrls.wrQLenPdf::62                    423                       # What write queue length does an incoming req see
system.mem_ctrls.wrQLenPdf::63                    322                       # What write queue length does an incoming req see
system.mem_ctrls.bytesPerActivate::samples        24116                       # Bytes accessed per row activation
system.mem_ctrls.bytesPerActivate::mean    472.614364                       # Bytes accessed per row activation
system.mem_ctrls.bytesPerActivate::gmean   344.062245                       # Bytes accessed per row activation
system.mem_ctrls.bytesPerActivate::stdev   351.527543                       # Bytes accessed per row activation
system.mem_ctrls.bytesPerActivate::0-127          345      1.43%      1.43% # Bytes accessed per row activation
system.mem_ctrls.bytesPerActivate::128-255         7327     30.38%     31.81% # Bytes accessed per row activation
system.mem_ctrls.bytesPerActivate::256-383         3805     15.78%     47.59% # Bytes accessed per row activation
system.mem_ctrls.bytesPerActivate::384-511         3371     13.98%     61.57% # Bytes accessed per row activation
system.mem_ctrls.bytesPerActivate::512-639         1425      5.91%     67.48% # Bytes accessed per row activation
system.mem_ctrls.bytesPerActivate::640-767          884      3.67%     71.14% # Bytes accessed per row activation
system.mem_ctrls.bytesPerActivate::768-895          854      3.54%     74.68% # Bytes accessed per row activation
system.mem_ctrls.bytesPerActivate::896-1023          890      3.69%     78.38% # Bytes accessed per row activation
system.mem_ctrls.bytesPerActivate::1024-1151         5215     21.62%    100.00% # Bytes accessed per row activation
system.mem_ctrls.bytesPerActivate::total        24116                       # Bytes accessed per row activation
system.mem_ctrls.rdPerTurnAround::samples         4322                       # Reads before turning the bus around for writes
system.mem_ctrls.rdPerTurnAround::mean      25.127950                       # Reads before turning the bus around for writes
system.mem_ctrls.rdPerTurnAround::gmean     21.270341                       # Reads before turning the bus around for writes
system.mem_ctrls.rdPerTurnAround::stdev     49.789230                       # Reads before turning the bus around for writes
system.mem_ctrls.rdPerTurnAround::0-127          4311     99.75%     99.75% # Reads before turning the bus around for writes
system.mem_ctrls.rdPerTurnAround::128-255            6      0.14%     99.88% # Reads before turning the bus around for writes
system.mem_ctrls.rdPerTurnAround::256-383            3      0.07%     99.95% # Reads before turning the bus around for writes
system.mem_ctrls.rdPerTurnAround::384-511            1      0.02%     99.98% # Reads before turning the bus around for writes
system.mem_ctrls.rdPerTurnAround::3072-3199            1      0.02%    100.00% # Reads before turning the bus around for writes
system.mem_ctrls.rdPerTurnAround::total          4322                       # Reads before turning the bus around for writes
system.mem_ctrls.wrPerTurnAround::samples         4322                       # Writes before turning the bus around for reads
system.mem_ctrls.wrPerTurnAround::mean      16.085146                       # Writes before turning the bus around for reads
system.mem_ctrls.wrPerTurnAround::gmean     16.074792                       # Writes before turning the bus around for reads
system.mem_ctrls.wrPerTurnAround::stdev      0.666705                       # Writes before turning the bus around for reads
system.mem_ctrls.wrPerTurnAround::16             4192     96.99%     96.99% # Writes before turning the bus around for reads
system.mem_ctrls.wrPerTurnAround::17                7      0.16%     97.15% # Writes before turning the bus around for reads
system.mem_ctrls.wrPerTurnAround::18              102      2.36%     99.51% # Writes before turning the bus around for reads
system.mem_ctrls.wrPerTurnAround::19                8      0.19%     99.70% # Writes before turning the bus around for reads
system.mem_ctrls.wrPerTurnAround::20                1      0.02%     99.72% # Writes before turning the bus around for reads
system.mem_ctrls.wrPerTurnAround::21                1      0.02%     99.75% # Writes before turning the bus around for reads
system.mem_ctrls.wrPerTurnAround::24                1      0.02%     99.77% # Writes before turning the bus around for reads
system.mem_ctrls.wrPerTurnAround::25                1      0.02%     99.79% # Writes before turning the bus around for reads
system.mem_ctrls.wrPerTurnAround::26                1      0.02%     99.81% # Writes before turning the bus around for reads
system.mem_ctrls.wrPerTurnAround::27                1      0.02%     99.84% # Writes before turning the bus around for reads
system.mem_ctrls.wrPerTurnAround::28                5      0.12%     99.95% # Writes before turning the bus around for reads
system.mem_ctrls.wrPerTurnAround::29                2      0.05%    100.00% # Writes before turning the bus around for reads
system.mem_ctrls.wrPerTurnAround::total          4322                       # Writes before turning the bus around for reads
system.mem_ctrls.totQLat                   7468509870                       # Total ticks spent queuing
system.mem_ctrls.totMemAccLat              9505116120                       # Total ticks spent from burst creation until serviced by the DRAM
system.mem_ctrls.totBusLat                  543095000                       # Total ticks spent in databus transfers
system.mem_ctrls.avgQLat                     68758.78                       # Average queueing delay per DRAM burst
system.mem_ctrls.avgBusLat                    5000.00                       # Average bus latency per DRAM burst
system.mem_ctrls.avgMemAccLat                87508.78                       # Average memory access latency per DRAM burst
system.mem_ctrls.avgRdBW                       157.61                       # Average DRAM read bandwidth in MiByte/s
system.mem_ctrls.avgWrBW                       100.87                       # Average achieved write bandwidth in MiByte/s
system.mem_ctrls.avgRdBWSys                    157.72                       # Average system read bandwidth in MiByte/s
system.mem_ctrls.avgWrBWSys                    100.92                       # Average system write bandwidth in MiByte/s
system.mem_ctrls.peakBW                      12800.00                       # Theoretical peak bandwidth in MiByte/s
system.mem_ctrls.busUtil                         2.02                       # Data bus utilization in percentage
system.mem_ctrls.busUtilRead                     1.23                       # Data bus utilization in percentage for reads
system.mem_ctrls.busUtilWrite                    0.79                       # Data bus utilization in percentage for writes
system.mem_ctrls.avgRdQLen                       2.17                       # Average read queue length when enqueuing
system.mem_ctrls.avgWrQLen                      28.31                       # Average write queue length when enqueuing
system.mem_ctrls.readRowHits                    92473                       # Number of row buffer hits during reads
system.mem_ctrls.writeRowHits                   61538                       # Number of row buffer hits during writes
system.mem_ctrls.readRowHitRate                 85.14                       # Row buffer hit rate for reads
system.mem_ctrls.writeRowHitRate                88.48                       # Row buffer hit rate for writes
system.mem_ctrls.avgGap                     494890.84                       # Average gap between requests
system.mem_ctrls.pageHitRate                    86.44                       # Row buffer hit rate, read and write combined
system.mem_ctrls_0.actEnergy                 92254680                       # Energy for activate commands per rank (pJ)
system.mem_ctrls_0.preEnergy                 50337375                       # Energy for precharge commands per rank (pJ)
system.mem_ctrls_0.readEnergy               420591600                       # Energy for read commands per rank (pJ)
system.mem_ctrls_0.writeEnergy              222335280                       # Energy for write commands per rank (pJ)
system.mem_ctrls_0.refreshEnergy           2880483840                       # Energy for refresh commands per rank (pJ)
system.mem_ctrls_0.actBackEnergy          11808291285                       # Energy for active background per rank (pJ)
system.mem_ctrls_0.preBackEnergy          16102801500                       # Energy for precharge background per rank (pJ)
system.mem_ctrls_0.totalEnergy            31577095560                       # Total energy per rank (pJ)
system.mem_ctrls_0.averagePower            716.008159                       # Core power per rank (mW)
system.mem_ctrls_0.memoryStateTime::IDLE  26713145999                       # Time in different power states
system.mem_ctrls_0.memoryStateTime::REF    1472640000                       # Time in different power states
system.mem_ctrls_0.memoryStateTime::PRE_PDN            0                       # Time in different power states
system.mem_ctrls_0.memoryStateTime::ACT   15915814001                       # Time in different power states
system.mem_ctrls_0.memoryStateTime::ACT_PDN            0                       # Time in different power states
system.mem_ctrls_1.actEnergy                 89888400                       # Energy for activate commands per rank (pJ)
system.mem_ctrls_1.preEnergy                 49046250                       # Energy for precharge commands per rank (pJ)
system.mem_ctrls_1.readEnergy               425950200                       # Energy for read commands per rank (pJ)
system.mem_ctrls_1.writeEnergy              227616480                       # Energy for write commands per rank (pJ)
system.mem_ctrls_1.refreshEnergy           2880483840                       # Energy for refresh commands per rank (pJ)
system.mem_ctrls_1.actBackEnergy          11772084600                       # Energy for active background per rank (pJ)
system.mem_ctrls_1.preBackEnergy          16134558000                       # Energy for precharge background per rank (pJ)
system.mem_ctrls_1.totalEnergy            31579627770                       # Total energy per rank (pJ)
system.mem_ctrls_1.averagePower            716.065678                       # Core power per rank (mW)
system.mem_ctrls_1.memoryStateTime::IDLE  26767888002                       # Time in different power states
system.mem_ctrls_1.memoryStateTime::REF    1472640000                       # Time in different power states
system.mem_ctrls_1.memoryStateTime::PRE_PDN            0                       # Time in different power states
system.mem_ctrls_1.memoryStateTime::ACT   15863121498                       # Time in different power states
system.mem_ctrls_1.memoryStateTime::ACT_PDN            0                       # Time in different power states
system.ruby_clk_domain.clock                      500                       # Clock period in ticks
system.ruby.phys_mem.bytes_read::cpu0.inst    242733408                       # Number of bytes read from this memory
system.ruby.phys_mem.bytes_read::cpu0.data     41555896                       # Number of bytes read from this memory
system.ruby.phys_mem.bytes_read::gpu.ce       1163612                       # Number of bytes read from this memory
system.ruby.phys_mem.bytes_read::gpu.shader_cores0.data       551968                       # Number of bytes read from this memory
system.ruby.phys_mem.bytes_read::gpu.shader_cores0.inst          192                       # Number of bytes read from this memory
system.ruby.phys_mem.bytes_read::gpu.shader_cores1.data       559680                       # Number of bytes read from this memory
system.ruby.phys_mem.bytes_read::gpu.shader_cores1.inst          208                       # Number of bytes read from this memory
system.ruby.phys_mem.bytes_read::gpu.shader_cores2.data       573312                       # Number of bytes read from this memory
system.ruby.phys_mem.bytes_read::gpu.shader_cores2.inst          192                       # Number of bytes read from this memory
system.ruby.phys_mem.bytes_read::gpu.shader_cores3.data       552096                       # Number of bytes read from this memory
system.ruby.phys_mem.bytes_read::gpu.shader_cores3.inst          192                       # Number of bytes read from this memory
system.ruby.phys_mem.bytes_read::total      287690756                       # Number of bytes read from this memory
system.ruby.phys_mem.bytes_inst_read::cpu0.inst    242733408                       # Number of instructions bytes read from this memory
system.ruby.phys_mem.bytes_inst_read::gpu.shader_cores0.inst          192                       # Number of instructions bytes read from this memory
system.ruby.phys_mem.bytes_inst_read::gpu.shader_cores1.inst          208                       # Number of instructions bytes read from this memory
system.ruby.phys_mem.bytes_inst_read::gpu.shader_cores2.inst          192                       # Number of instructions bytes read from this memory
system.ruby.phys_mem.bytes_inst_read::gpu.shader_cores3.inst          192                       # Number of instructions bytes read from this memory
system.ruby.phys_mem.bytes_inst_read::total    242734192                       # Number of instructions bytes read from this memory
system.ruby.phys_mem.bytes_written::cpu0.data     21179246                       # Number of bytes written to this memory
system.ruby.phys_mem.bytes_written::gpu.ce      1163612                       # Number of bytes written to this memory
system.ruby.phys_mem.bytes_written::gpu.shader_cores0.data       198656                       # Number of bytes written to this memory
system.ruby.phys_mem.bytes_written::gpu.shader_cores1.data       200832                       # Number of bytes written to this memory
system.ruby.phys_mem.bytes_written::gpu.shader_cores2.data       204800                       # Number of bytes written to this memory
system.ruby.phys_mem.bytes_written::gpu.shader_cores3.data       198656                       # Number of bytes written to this memory
system.ruby.phys_mem.bytes_written::total     23145802                       # Number of bytes written to this memory
system.ruby.phys_mem.num_reads::cpu0.inst     30341676                       # Number of read requests responded to by this memory
system.ruby.phys_mem.num_reads::cpu0.data      7023737                       # Number of read requests responded to by this memory
system.ruby.phys_mem.num_reads::gpu.ce           9095                       # Number of read requests responded to by this memory
system.ruby.phys_mem.num_reads::gpu.shader_cores0.data         6676                       # Number of read requests responded to by this memory
system.ruby.phys_mem.num_reads::gpu.shader_cores0.inst           12                       # Number of read requests responded to by this memory
system.ruby.phys_mem.num_reads::gpu.shader_cores1.data         6750                       # Number of read requests responded to by this memory
system.ruby.phys_mem.num_reads::gpu.shader_cores1.inst           13                       # Number of read requests responded to by this memory
system.ruby.phys_mem.num_reads::gpu.shader_cores2.data         6926                       # Number of read requests responded to by this memory
system.ruby.phys_mem.num_reads::gpu.shader_cores2.inst           12                       # Number of read requests responded to by this memory
system.ruby.phys_mem.num_reads::gpu.shader_cores3.data         6661                       # Number of read requests responded to by this memory
system.ruby.phys_mem.num_reads::gpu.shader_cores3.inst           12                       # Number of read requests responded to by this memory
system.ruby.phys_mem.num_reads::total        37401570                       # Number of read requests responded to by this memory
system.ruby.phys_mem.num_writes::cpu0.data      3508970                       # Number of write requests responded to by this memory
system.ruby.phys_mem.num_writes::gpu.ce          9096                       # Number of write requests responded to by this memory
system.ruby.phys_mem.num_writes::gpu.shader_cores0.data         4972                       # Number of write requests responded to by this memory
system.ruby.phys_mem.num_writes::gpu.shader_cores1.data         5033                       # Number of write requests responded to by this memory
system.ruby.phys_mem.num_writes::gpu.shader_cores2.data         5106                       # Number of write requests responded to by this memory
system.ruby.phys_mem.num_writes::gpu.shader_cores3.data         4987                       # Number of write requests responded to by this memory
system.ruby.phys_mem.num_writes::total        3538164                       # Number of write requests responded to by this memory
system.ruby.phys_mem.bw_read::cpu0.inst    5503255117                       # Total read bandwidth from this memory (bytes/s)
system.ruby.phys_mem.bw_read::cpu0.data     942155838                       # Total read bandwidth from this memory (bytes/s)
system.ruby.phys_mem.bw_read::gpu.ce         26381427                       # Total read bandwidth from this memory (bytes/s)
system.ruby.phys_mem.bw_read::gpu.shader_cores0.data     12514226                       # Total read bandwidth from this memory (bytes/s)
system.ruby.phys_mem.bw_read::gpu.shader_cores0.inst         4353                       # Total read bandwidth from this memory (bytes/s)
system.ruby.phys_mem.bw_read::gpu.shader_cores1.data     12689073                       # Total read bandwidth from this memory (bytes/s)
system.ruby.phys_mem.bw_read::gpu.shader_cores1.inst         4716                       # Total read bandwidth from this memory (bytes/s)
system.ruby.phys_mem.bw_read::gpu.shader_cores2.data     12998137                       # Total read bandwidth from this memory (bytes/s)
system.ruby.phys_mem.bw_read::gpu.shader_cores2.inst         4353                       # Total read bandwidth from this memory (bytes/s)
system.ruby.phys_mem.bw_read::gpu.shader_cores3.data     12517128                       # Total read bandwidth from this memory (bytes/s)
system.ruby.phys_mem.bw_read::gpu.shader_cores3.inst         4353                       # Total read bandwidth from this memory (bytes/s)
system.ruby.phys_mem.bw_read::total        6522528721                       # Total read bandwidth from this memory (bytes/s)
system.ruby.phys_mem.bw_inst_read::cpu0.inst   5503255117                       # Instruction read bandwidth from this memory (bytes/s)
system.ruby.phys_mem.bw_inst_read::gpu.shader_cores0.inst         4353                       # Instruction read bandwidth from this memory (bytes/s)
system.ruby.phys_mem.bw_inst_read::gpu.shader_cores1.inst         4716                       # Instruction read bandwidth from this memory (bytes/s)
system.ruby.phys_mem.bw_inst_read::gpu.shader_cores2.inst         4353                       # Instruction read bandwidth from this memory (bytes/s)
system.ruby.phys_mem.bw_inst_read::gpu.shader_cores3.inst         4353                       # Instruction read bandwidth from this memory (bytes/s)
system.ruby.phys_mem.bw_inst_read::total   5503272892                       # Instruction read bandwidth from this memory (bytes/s)
system.ruby.phys_mem.bw_write::cpu0.data    480176152                       # Write bandwidth from this memory (bytes/s)
system.ruby.phys_mem.bw_write::gpu.ce        26381427                       # Write bandwidth from this memory (bytes/s)
system.ruby.phys_mem.bw_write::gpu.shader_cores0.data      4503932                       # Write bandwidth from this memory (bytes/s)
system.ruby.phys_mem.bw_write::gpu.shader_cores1.data      4553266                       # Write bandwidth from this memory (bytes/s)
system.ruby.phys_mem.bw_write::gpu.shader_cores2.data      4643228                       # Write bandwidth from this memory (bytes/s)
system.ruby.phys_mem.bw_write::gpu.shader_cores3.data      4503932                       # Write bandwidth from this memory (bytes/s)
system.ruby.phys_mem.bw_write::total        524761937                       # Write bandwidth from this memory (bytes/s)
system.ruby.phys_mem.bw_total::cpu0.inst   5503255117                       # Total bandwidth to/from this memory (bytes/s)
system.ruby.phys_mem.bw_total::cpu0.data   1422331990                       # Total bandwidth to/from this memory (bytes/s)
system.ruby.phys_mem.bw_total::gpu.ce        52762854                       # Total bandwidth to/from this memory (bytes/s)
system.ruby.phys_mem.bw_total::gpu.shader_cores0.data     17018158                       # Total bandwidth to/from this memory (bytes/s)
system.ruby.phys_mem.bw_total::gpu.shader_cores0.inst         4353                       # Total bandwidth to/from this memory (bytes/s)
system.ruby.phys_mem.bw_total::gpu.shader_cores1.data     17242338                       # Total bandwidth to/from this memory (bytes/s)
system.ruby.phys_mem.bw_total::gpu.shader_cores1.inst         4716                       # Total bandwidth to/from this memory (bytes/s)
system.ruby.phys_mem.bw_total::gpu.shader_cores2.data     17641366                       # Total bandwidth to/from this memory (bytes/s)
system.ruby.phys_mem.bw_total::gpu.shader_cores2.inst         4353                       # Total bandwidth to/from this memory (bytes/s)
system.ruby.phys_mem.bw_total::gpu.shader_cores3.data     17021060                       # Total bandwidth to/from this memory (bytes/s)
system.ruby.phys_mem.bw_total::gpu.shader_cores3.inst         4353                       # Total bandwidth to/from this memory (bytes/s)
system.ruby.phys_mem.bw_total::total       7047290658                       # Total bandwidth to/from this memory (bytes/s)
system.cpu_voltage_domain.voltage                   1                       # Voltage in Volts
system.cpu_clk_domain.clock                       500                       # Clock period in ticks
system.cpu0.apic_clk_domain.clock                8000                       # Clock period in ticks
system.cpu0.workload.num_syscalls                  57                       # Number of system calls
system.cpu0.numCycles                        88214485                       # number of cpu cycles simulated
system.cpu0.numWorkItemsStarted                     1                       # number of work items this cpu started
system.cpu0.numWorkItemsCompleted                   1                       # number of work items this cpu completed
system.cpu0.committedInsts                   22774369                       # Number of instructions committed
system.cpu0.committedOps                     41814173                       # Number of ops (including micro ops) committed
system.cpu0.num_int_alu_accesses             41139257                       # Number of integer alu accesses
system.cpu0.num_fp_alu_accesses               1048993                       # Number of float alu accesses
system.cpu0.num_func_calls                     972278                       # number of times a function call or return occured
system.cpu0.num_conditional_control_insts      3126989                       # number of instructions that are conditional controls
system.cpu0.num_int_insts                    41139257                       # number of integer instructions
system.cpu0.num_fp_insts                      1048993                       # number of float instructions
system.cpu0.num_int_register_reads           80978495                       # number of times the integer registers were read
system.cpu0.num_int_register_writes          33176051                       # number of times the integer registers were written
system.cpu0.num_fp_register_reads             1234332                       # number of times the floating registers were read
system.cpu0.num_fp_register_writes             793650                       # number of times the floating registers were written
system.cpu0.num_cc_register_reads            22878424                       # number of times the CC registers were read
system.cpu0.num_cc_register_writes           15251568                       # number of times the CC registers were written
system.cpu0.num_mem_refs                     10532707                       # number of memory refs
system.cpu0.num_load_insts                    7023737                       # Number of load instructions
system.cpu0.num_store_insts                   3508970                       # Number of store instructions
system.cpu0.num_idle_cycles              964028.913978                       # Number of idle cycles
system.cpu0.num_busy_cycles              87250456.086022                       # Number of busy cycles
system.cpu0.not_idle_fraction                0.989072                       # Percentage of non-idle cycles
system.cpu0.idle_fraction                    0.010928                       # Percentage of idle cycles
system.cpu0.Branches                          4346445                       # Number of branches fetched
system.cpu0.op_class::No_OpClass                98374      0.24%      0.24% # Class of executed instruction
system.cpu0.op_class::IntAlu                 30432097     72.78%     73.01% # Class of executed instruction
system.cpu0.op_class::IntMult                   63116      0.15%     73.17% # Class of executed instruction
system.cpu0.op_class::IntDiv                      589      0.00%     73.17% # Class of executed instruction
system.cpu0.op_class::FloatAdd                 687290      1.64%     74.81% # Class of executed instruction
system.cpu0.op_class::FloatCmp                      0      0.00%     74.81% # Class of executed instruction
system.cpu0.op_class::FloatCvt                      0      0.00%     74.81% # Class of executed instruction
system.cpu0.op_class::FloatMult                     0      0.00%     74.81% # Class of executed instruction
system.cpu0.op_class::FloatDiv                      0      0.00%     74.81% # Class of executed instruction
system.cpu0.op_class::FloatSqrt                     0      0.00%     74.81% # Class of executed instruction
system.cpu0.op_class::SimdAdd                       0      0.00%     74.81% # Class of executed instruction
system.cpu0.op_class::SimdAddAcc                    0      0.00%     74.81% # Class of executed instruction
system.cpu0.op_class::SimdAlu                       0      0.00%     74.81% # Class of executed instruction
system.cpu0.op_class::SimdCmp                       0      0.00%     74.81% # Class of executed instruction
system.cpu0.op_class::SimdCvt                       0      0.00%     74.81% # Class of executed instruction
system.cpu0.op_class::SimdMisc                      0      0.00%     74.81% # Class of executed instruction
system.cpu0.op_class::SimdMult                      0      0.00%     74.81% # Class of executed instruction
system.cpu0.op_class::SimdMultAcc                   0      0.00%     74.81% # Class of executed instruction
system.cpu0.op_class::SimdShift                     0      0.00%     74.81% # Class of executed instruction
system.cpu0.op_class::SimdShiftAcc                  0      0.00%     74.81% # Class of executed instruction
system.cpu0.op_class::SimdSqrt                      0      0.00%     74.81% # Class of executed instruction
system.cpu0.op_class::SimdFloatAdd                  0      0.00%     74.81% # Class of executed instruction
system.cpu0.op_class::SimdFloatAlu                  0      0.00%     74.81% # Class of executed instruction
system.cpu0.op_class::SimdFloatCmp                  0      0.00%     74.81% # Class of executed instruction
system.cpu0.op_class::SimdFloatCvt                  0      0.00%     74.81% # Class of executed instruction
system.cpu0.op_class::SimdFloatDiv                  0      0.00%     74.81% # Class of executed instruction
system.cpu0.op_class::SimdFloatMisc                 0      0.00%     74.81% # Class of executed instruction
system.cpu0.op_class::SimdFloatMult                 0      0.00%     74.81% # Class of executed instruction
system.cpu0.op_class::SimdFloatMultAcc              0      0.00%     74.81% # Class of executed instruction
system.cpu0.op_class::SimdFloatSqrt                 0      0.00%     74.81% # Class of executed instruction
system.cpu0.op_class::MemRead                 7023737     16.80%     91.61% # Class of executed instruction
system.cpu0.op_class::MemWrite                3508970      8.39%    100.00% # Class of executed instruction
system.cpu0.op_class::IprAccess                     0      0.00%    100.00% # Class of executed instruction
system.cpu0.op_class::InstPrefetch                  0      0.00%    100.00% # Class of executed instruction
system.cpu0.op_class::total                  41814173                       # Class of executed instruction
system.cpu1.apic_clk_domain.clock                8000                       # Clock period in ticks
system.cpu1.numCycles                               0                       # number of cpu cycles simulated
system.cpu1.numWorkItemsStarted                     0                       # number of work items this cpu started
system.cpu1.numWorkItemsCompleted                   0                       # number of work items this cpu completed
system.cpu1.committedInsts                          0                       # Number of instructions committed
system.cpu1.committedOps                            0                       # Number of ops (including micro ops) committed
system.cpu1.num_int_alu_accesses                    0                       # Number of integer alu accesses
system.cpu1.num_fp_alu_accesses                     0                       # Number of float alu accesses
system.cpu1.num_func_calls                          0                       # number of times a function call or return occured
system.cpu1.num_conditional_control_insts            0                       # number of instructions that are conditional controls
system.cpu1.num_int_insts                           0                       # number of integer instructions
system.cpu1.num_fp_insts                            0                       # number of float instructions
system.cpu1.num_int_register_reads                  0                       # number of times the integer registers were read
system.cpu1.num_int_register_writes                 0                       # number of times the integer registers were written
system.cpu1.num_fp_register_reads                   0                       # number of times the floating registers were read
system.cpu1.num_fp_register_writes                  0                       # number of times the floating registers were written
system.cpu1.num_mem_refs                            0                       # number of memory refs
system.cpu1.num_load_insts                          0                       # Number of load instructions
system.cpu1.num_store_insts                         0                       # Number of store instructions
system.cpu1.num_idle_cycles                         0                       # Number of idle cycles
system.cpu1.num_busy_cycles                         0                       # Number of busy cycles
system.cpu1.not_idle_fraction                       0                       # Percentage of non-idle cycles
system.cpu1.idle_fraction                           1                       # Percentage of idle cycles
system.cpu1.op_class::No_OpClass                    0                       # Class of executed instruction
system.cpu1.op_class::IntAlu                        0                       # Class of executed instruction
system.cpu1.op_class::IntMult                       0                       # Class of executed instruction
system.cpu1.op_class::IntDiv                        0                       # Class of executed instruction
system.cpu1.op_class::FloatAdd                      0                       # Class of executed instruction
system.cpu1.op_class::FloatCmp                      0                       # Class of executed instruction
system.cpu1.op_class::FloatCvt                      0                       # Class of executed instruction
system.cpu1.op_class::FloatMult                     0                       # Class of executed instruction
system.cpu1.op_class::FloatDiv                      0                       # Class of executed instruction
system.cpu1.op_class::FloatSqrt                     0                       # Class of executed instruction
system.cpu1.op_class::SimdAdd                       0                       # Class of executed instruction
system.cpu1.op_class::SimdAddAcc                    0                       # Class of executed instruction
system.cpu1.op_class::SimdAlu                       0                       # Class of executed instruction
system.cpu1.op_class::SimdCmp                       0                       # Class of executed instruction
system.cpu1.op_class::SimdCvt                       0                       # Class of executed instruction
system.cpu1.op_class::SimdMisc                      0                       # Class of executed instruction
system.cpu1.op_class::SimdMult                      0                       # Class of executed instruction
system.cpu1.op_class::SimdMultAcc                   0                       # Class of executed instruction
system.cpu1.op_class::SimdShift                     0                       # Class of executed instruction
system.cpu1.op_class::SimdShiftAcc                  0                       # Class of executed instruction
system.cpu1.op_class::SimdSqrt                      0                       # Class of executed instruction
system.cpu1.op_class::SimdFloatAdd                  0                       # Class of executed instruction
system.cpu1.op_class::SimdFloatAlu                  0                       # Class of executed instruction
system.cpu1.op_class::SimdFloatCmp                  0                       # Class of executed instruction
system.cpu1.op_class::SimdFloatCvt                  0                       # Class of executed instruction
system.cpu1.op_class::SimdFloatDiv                  0                       # Class of executed instruction
system.cpu1.op_class::SimdFloatMisc                 0                       # Class of executed instruction
system.cpu1.op_class::SimdFloatMult                 0                       # Class of executed instruction
system.cpu1.op_class::SimdFloatMultAcc              0                       # Class of executed instruction
system.cpu1.op_class::SimdFloatSqrt                 0                       # Class of executed instruction
system.cpu1.op_class::MemRead                       0                       # Class of executed instruction
system.cpu1.op_class::MemWrite                      0                       # Class of executed instruction
system.cpu1.op_class::IprAccess                     0                       # Class of executed instruction
system.cpu1.op_class::InstPrefetch                  0                       # Class of executed instruction
system.cpu1.op_class::total                         0                       # Class of executed instruction
system.gpu.clk_domain.voltage_domain.voltage            1                       # Voltage in Volts
system.gpu.clk_domain.clock                      1429                       # Clock period in ticks
system.gpu.dram_wrapper.clk_domain.clock          541                       # Clock period in ticks
system.gpu.icnt_wrapper.clk_domain.clock         2858                       # Clock period in ticks
system.ruby.delayHist::bucket_size                128                       # delay histogram for all message
system.ruby.delayHist::max_bucket                1279                       # delay histogram for all message
system.ruby.delayHist::samples                 424712                       # delay histogram for all message
system.ruby.delayHist::mean                  4.008853                       # delay histogram for all message
system.ruby.delayHist::stdev                17.896236                       # delay histogram for all message
system.ruby.delayHist                    |      424102     99.86%     99.86% |         333      0.08%     99.93% |          94      0.02%     99.96% |          57      0.01%     99.97% |          71      0.02%     99.99% |          15      0.00%     99.99% |          32      0.01%    100.00% |           8      0.00%    100.00% |           0      0.00%    100.00% |           0      0.00%    100.00% # delay histogram for all message
system.ruby.delayHist::total                   424712                       # delay histogram for all message
system.ruby.outstanding_req_hist::bucket_size            8                      
system.ruby.outstanding_req_hist::max_bucket           79                      
system.ruby.outstanding_req_hist::samples     40939734                      
system.ruby.outstanding_req_hist::mean       1.044453                      
system.ruby.outstanding_req_hist::gmean      1.004281                      
system.ruby.outstanding_req_hist::stdev      1.474428                      
system.ruby.outstanding_req_hist         |    40892864     99.89%     99.89% |        6349      0.02%     99.90% |        8378      0.02%     99.92% |        8068      0.02%     99.94% |        4139      0.01%     99.95% |        1987      0.00%     99.96% |         201      0.00%     99.96% |          74      0.00%     99.96% |       17674      0.04%    100.00% |           0      0.00%    100.00%
system.ruby.outstanding_req_hist::total      40939734                      
system.ruby.latency_hist::bucket_size            1024                      
system.ruby.latency_hist::max_bucket            10239                      
system.ruby.latency_hist::samples            40939734                      
system.ruby.latency_hist::mean               2.839986                      
system.ruby.latency_hist::gmean              1.009703                      
system.ruby.latency_hist::stdev             78.213519                      
system.ruby.latency_hist                 |    40918344     99.95%     99.95% |        3085      0.01%     99.96% |        8802      0.02%     99.98% |        4779      0.01%     99.99% |        3161      0.01%    100.00% |        1070      0.00%    100.00% |         407      0.00%    100.00% |          82      0.00%    100.00% |           4      0.00%    100.00% |           0      0.00%    100.00%
system.ruby.latency_hist::total              40939734                      
system.ruby.hit_latency_hist::bucket_size            1                      
system.ruby.hit_latency_hist::max_bucket            9                      
system.ruby.hit_latency_hist::samples        40867585                      
system.ruby.hit_latency_hist::mean                  1                      
system.ruby.hit_latency_hist::gmean                 1                      
system.ruby.hit_latency_hist             |           0      0.00%      0.00% |    40867585    100.00%    100.00% |           0      0.00%    100.00% |           0      0.00%    100.00% |           0      0.00%    100.00% |           0      0.00%    100.00% |           0      0.00%    100.00% |           0      0.00%    100.00% |           0      0.00%    100.00% |           0      0.00%    100.00%
system.ruby.hit_latency_hist::total          40867585                      
system.ruby.miss_latency_hist::bucket_size         1024                      
system.ruby.miss_latency_hist::max_bucket        10239                      
system.ruby.miss_latency_hist::samples          72149                      
system.ruby.miss_latency_hist::mean       1045.068899                      
system.ruby.miss_latency_hist::gmean       239.719915                      
system.ruby.miss_latency_hist::stdev      1543.717552                      
system.ruby.miss_latency_hist            |       50759     70.35%     70.35% |        3085      4.28%     74.63% |        8802     12.20%     86.83% |        4779      6.62%     93.45% |        3161      4.38%     97.83% |        1070      1.48%     99.32% |         407      0.56%     99.88% |          82      0.11%     99.99% |           4      0.01%    100.00% |           0      0.00%    100.00%
system.ruby.miss_latency_hist::total            72149                      
system.gpu.shader_mmu.numPagefaults                 0                       # Number of Pagefaults
system.gpu.shader_mmu.numPagewalks               2804                       # Number of Pagewalks
system.gpu.shader_mmu.totalRequests              2804                       # Total number of requests
system.gpu.shader_mmu.l2hits                        0                       # Hits in the shared L2
system.gpu.shader_mmu.prefetchHits                  0                       # Number of prefetch hits
system.gpu.shader_mmu.numPrefetches                 0                       # Number of prefetchs
system.gpu.shader_mmu.prefetchFaults                0                       # Number of faults caused by prefetches
system.gpu.shader_mmu.pagefaultLatency::samples            0                       # Latency to complete the pagefault
system.gpu.shader_mmu.pagefaultLatency::mean          nan                       # Latency to complete the pagefault
system.gpu.shader_mmu.pagefaultLatency::gmean          nan                       # Latency to complete the pagefault
system.gpu.shader_mmu.pagefaultLatency::stdev          nan                       # Latency to complete the pagefault
system.gpu.shader_mmu.pagefaultLatency::0            0                       # Latency to complete the pagefault
system.gpu.shader_mmu.pagefaultLatency::1            0                       # Latency to complete the pagefault
system.gpu.shader_mmu.pagefaultLatency::2            0                       # Latency to complete the pagefault
system.gpu.shader_mmu.pagefaultLatency::3            0                       # Latency to complete the pagefault
system.gpu.shader_mmu.pagefaultLatency::4            0                       # Latency to complete the pagefault
system.gpu.shader_mmu.pagefaultLatency::5            0                       # Latency to complete the pagefault
system.gpu.shader_mmu.pagefaultLatency::6            0                       # Latency to complete the pagefault
system.gpu.shader_mmu.pagefaultLatency::7            0                       # Latency to complete the pagefault
system.gpu.shader_mmu.pagefaultLatency::8            0                       # Latency to complete the pagefault
system.gpu.shader_mmu.pagefaultLatency::9            0                       # Latency to complete the pagefault
system.gpu.shader_mmu.pagefaultLatency::10            0                       # Latency to complete the pagefault
system.gpu.shader_mmu.pagefaultLatency::11            0                       # Latency to complete the pagefault
system.gpu.shader_mmu.pagefaultLatency::12            0                       # Latency to complete the pagefault
system.gpu.shader_mmu.pagefaultLatency::13            0                       # Latency to complete the pagefault
system.gpu.shader_mmu.pagefaultLatency::14            0                       # Latency to complete the pagefault
system.gpu.shader_mmu.pagefaultLatency::15            0                       # Latency to complete the pagefault
system.gpu.shader_mmu.pagefaultLatency::16            0                       # Latency to complete the pagefault
system.gpu.shader_mmu.pagefaultLatency::17            0                       # Latency to complete the pagefault
system.gpu.shader_mmu.pagefaultLatency::18            0                       # Latency to complete the pagefault
system.gpu.shader_mmu.pagefaultLatency::19            0                       # Latency to complete the pagefault
system.gpu.shader_mmu.pagefaultLatency::20            0                       # Latency to complete the pagefault
system.gpu.shader_mmu.pagefaultLatency::21            0                       # Latency to complete the pagefault
system.gpu.shader_mmu.pagefaultLatency::22            0                       # Latency to complete the pagefault
system.gpu.shader_mmu.pagefaultLatency::23            0                       # Latency to complete the pagefault
system.gpu.shader_mmu.pagefaultLatency::24            0                       # Latency to complete the pagefault
system.gpu.shader_mmu.pagefaultLatency::25            0                       # Latency to complete the pagefault
system.gpu.shader_mmu.pagefaultLatency::26            0                       # Latency to complete the pagefault
system.gpu.shader_mmu.pagefaultLatency::27            0                       # Latency to complete the pagefault
system.gpu.shader_mmu.pagefaultLatency::28            0                       # Latency to complete the pagefault
system.gpu.shader_mmu.pagefaultLatency::29            0                       # Latency to complete the pagefault
system.gpu.shader_mmu.pagefaultLatency::30            0                       # Latency to complete the pagefault
system.gpu.shader_mmu.pagefaultLatency::31            0                       # Latency to complete the pagefault
system.gpu.shader_mmu.pagefaultLatency::total            0                       # Latency to complete the pagefault
system.gpu.shader_mmu.concurrentWalks::samples         2804                       # Number of outstanding walks
system.gpu.shader_mmu.concurrentWalks::mean            0                       # Number of outstanding walks
system.gpu.shader_mmu.concurrentWalks::gmean            0                       # Number of outstanding walks
system.gpu.shader_mmu.concurrentWalks::stdev            0                       # Number of outstanding walks
system.gpu.shader_mmu.concurrentWalks::0         2804    100.00%    100.00% # Number of outstanding walks
system.gpu.shader_mmu.concurrentWalks::1            0      0.00%    100.00% # Number of outstanding walks
system.gpu.shader_mmu.concurrentWalks::2            0      0.00%    100.00% # Number of outstanding walks
system.gpu.shader_mmu.concurrentWalks::3            0      0.00%    100.00% # Number of outstanding walks
system.gpu.shader_mmu.concurrentWalks::4            0      0.00%    100.00% # Number of outstanding walks
system.gpu.shader_mmu.concurrentWalks::5            0      0.00%    100.00% # Number of outstanding walks
system.gpu.shader_mmu.concurrentWalks::6            0      0.00%    100.00% # Number of outstanding walks
system.gpu.shader_mmu.concurrentWalks::7            0      0.00%    100.00% # Number of outstanding walks
system.gpu.shader_mmu.concurrentWalks::8            0      0.00%    100.00% # Number of outstanding walks
system.gpu.shader_mmu.concurrentWalks::9            0      0.00%    100.00% # Number of outstanding walks
system.gpu.shader_mmu.concurrentWalks::10            0      0.00%    100.00% # Number of outstanding walks
system.gpu.shader_mmu.concurrentWalks::11            0      0.00%    100.00% # Number of outstanding walks
system.gpu.shader_mmu.concurrentWalks::12            0      0.00%    100.00% # Number of outstanding walks
system.gpu.shader_mmu.concurrentWalks::13            0      0.00%    100.00% # Number of outstanding walks
system.gpu.shader_mmu.concurrentWalks::14            0      0.00%    100.00% # Number of outstanding walks
system.gpu.shader_mmu.concurrentWalks::15            0      0.00%    100.00% # Number of outstanding walks
system.gpu.shader_mmu.concurrentWalks::total         2804                       # Number of outstanding walks
system.gpu.shader_mmu.pagewalkLatency::samples         2804                       # Latency to complete the pagewalk
system.gpu.shader_mmu.pagewalkLatency::mean            0                       # Latency to complete the pagewalk
system.gpu.shader_mmu.pagewalkLatency::gmean            0                       # Latency to complete the pagewalk
system.gpu.shader_mmu.pagewalkLatency::stdev            0                       # Latency to complete the pagewalk
system.gpu.shader_mmu.pagewalkLatency::0         2804    100.00%    100.00% # Latency to complete the pagewalk
system.gpu.shader_mmu.pagewalkLatency::1            0      0.00%    100.00% # Latency to complete the pagewalk
system.gpu.shader_mmu.pagewalkLatency::2            0      0.00%    100.00% # Latency to complete the pagewalk
system.gpu.shader_mmu.pagewalkLatency::3            0      0.00%    100.00% # Latency to complete the pagewalk
system.gpu.shader_mmu.pagewalkLatency::4            0      0.00%    100.00% # Latency to complete the pagewalk
system.gpu.shader_mmu.pagewalkLatency::5            0      0.00%    100.00% # Latency to complete the pagewalk
system.gpu.shader_mmu.pagewalkLatency::6            0      0.00%    100.00% # Latency to complete the pagewalk
system.gpu.shader_mmu.pagewalkLatency::7            0      0.00%    100.00% # Latency to complete the pagewalk
system.gpu.shader_mmu.pagewalkLatency::8            0      0.00%    100.00% # Latency to complete the pagewalk
system.gpu.shader_mmu.pagewalkLatency::9            0      0.00%    100.00% # Latency to complete the pagewalk
system.gpu.shader_mmu.pagewalkLatency::10            0      0.00%    100.00% # Latency to complete the pagewalk
system.gpu.shader_mmu.pagewalkLatency::11            0      0.00%    100.00% # Latency to complete the pagewalk
system.gpu.shader_mmu.pagewalkLatency::12            0      0.00%    100.00% # Latency to complete the pagewalk
system.gpu.shader_mmu.pagewalkLatency::13            0      0.00%    100.00% # Latency to complete the pagewalk
system.gpu.shader_mmu.pagewalkLatency::14            0      0.00%    100.00% # Latency to complete the pagewalk
system.gpu.shader_mmu.pagewalkLatency::15            0      0.00%    100.00% # Latency to complete the pagewalk
system.gpu.shader_mmu.pagewalkLatency::16            0      0.00%    100.00% # Latency to complete the pagewalk
system.gpu.shader_mmu.pagewalkLatency::17            0      0.00%    100.00% # Latency to complete the pagewalk
system.gpu.shader_mmu.pagewalkLatency::18            0      0.00%    100.00% # Latency to complete the pagewalk
system.gpu.shader_mmu.pagewalkLatency::19            0      0.00%    100.00% # Latency to complete the pagewalk
system.gpu.shader_mmu.pagewalkLatency::20            0      0.00%    100.00% # Latency to complete the pagewalk
system.gpu.shader_mmu.pagewalkLatency::21            0      0.00%    100.00% # Latency to complete the pagewalk
system.gpu.shader_mmu.pagewalkLatency::22            0      0.00%    100.00% # Latency to complete the pagewalk
system.gpu.shader_mmu.pagewalkLatency::23            0      0.00%    100.00% # Latency to complete the pagewalk
system.gpu.shader_mmu.pagewalkLatency::24            0      0.00%    100.00% # Latency to complete the pagewalk
system.gpu.shader_mmu.pagewalkLatency::25            0      0.00%    100.00% # Latency to complete the pagewalk
system.gpu.shader_mmu.pagewalkLatency::26            0      0.00%    100.00% # Latency to complete the pagewalk
system.gpu.shader_mmu.pagewalkLatency::27            0      0.00%    100.00% # Latency to complete the pagewalk
system.gpu.shader_mmu.pagewalkLatency::28            0      0.00%    100.00% # Latency to complete the pagewalk
system.gpu.shader_mmu.pagewalkLatency::29            0      0.00%    100.00% # Latency to complete the pagewalk
system.gpu.shader_mmu.pagewalkLatency::30            0      0.00%    100.00% # Latency to complete the pagewalk
system.gpu.shader_mmu.pagewalkLatency::31            0      0.00%    100.00% # Latency to complete the pagewalk
system.gpu.shader_mmu.pagewalkLatency::total         2804                       # Latency to complete the pagewalk
system.gpu.kernels_started                          2                       # Number of kernels started
system.gpu.kernels_completed                        2                       # Number of kernels completed
system.gpu.ce.device_dtb.hits                       0                       # Number of hits in this TLB
system.gpu.ce.device_dtb.misses                     0                       # Number of misses in this TLB
system.gpu.ce.device_dtb.hitRate                  nan                       # Hit rate for this TLB
system.gpu.ce.host_dtb.hits                      6292                       # Number of hits in this TLB
system.gpu.ce.host_dtb.misses                    2804                       # Number of misses in this TLB
system.gpu.ce.host_dtb.hitRate               0.691733                       # Hit rate for this TLB
system.gpu.ce.numOperations                         8                       # Number of copy/memset operations
system.gpu.ce.opBytesRead                     1163612                       # Number of copy bytes read
system.gpu.ce.opBytesWritten                  1163612                       # Number of copy/memset bytes written
system.gpu.ce.opTimeTicks                   411469781                       # Total time spent in copy/memset operations
system.gpu.shader_cores0.itb.hits                   0                       # Number of hits in this TLB
system.gpu.shader_cores0.itb.misses                 0                       # Number of misses in this TLB
system.gpu.shader_cores0.itb.hitRate              nan                       # Hit rate for this TLB
system.gpu.shader_cores0.local_loads                0                       # Number of loads from local space
system.gpu.shader_cores0.local_stores               0                       # Number of stores to local space
system.gpu.shader_cores0.shared_loads           80896                       # Number of loads from shared space
system.gpu.shader_cores0.shared_stores          49152                       # Number of stores to shared space
system.gpu.shader_cores0.param_kernel_loads       115456                       # Number of loads from kernel parameter space
system.gpu.shader_cores0.param_local_loads            0                       # Number of loads from local parameter space
system.gpu.shader_cores0.param_local_stores            0                       # Number of stores to local parameter space
system.gpu.shader_cores0.const_loads                0                       # Number of loads from constant space
system.gpu.shader_cores0.tex_loads                  0                       # Number of loads from texture space
system.gpu.shader_cores0.global_loads          130304                       # Number of loads from global space
system.gpu.shader_cores0.global_stores          49664                       # Number of stores to global space
system.gpu.shader_cores0.surf_loads                 0                       # Number of loads from surface space
system.gpu.shader_cores0.generic_loads              0                       # Number of loads from generic spaces (global, shared, local)
system.gpu.shader_cores0.generic_stores             0                       # Number of stores to generic spaces (global, shared, local)
system.gpu.shader_cores0.inst_cache_requests           12                       # Number of instruction cache requests sent
system.gpu.shader_cores0.inst_cache_retries            0                       # Number of instruction cache retries
system.gpu.shader_cores0.inst_counts::0             0                       # Inst counts: 1: ALU, 2: MAD, 3: CTRL, 4: SFU, 5: MEM, 6: TEX, 7: NOP
system.gpu.shader_cores0.inst_counts::1       2070016                       # Inst counts: 1: ALU, 2: MAD, 3: CTRL, 4: SFU, 5: MEM, 6: TEX, 7: NOP
system.gpu.shader_cores0.inst_counts::2         32256                       # Inst counts: 1: ALU, 2: MAD, 3: CTRL, 4: SFU, 5: MEM, 6: TEX, 7: NOP
system.gpu.shader_cores0.inst_counts::3        325888                       # Inst counts: 1: ALU, 2: MAD, 3: CTRL, 4: SFU, 5: MEM, 6: TEX, 7: NOP
system.gpu.shader_cores0.inst_counts::4         98304                       # Inst counts: 1: ALU, 2: MAD, 3: CTRL, 4: SFU, 5: MEM, 6: TEX, 7: NOP
system.gpu.shader_cores0.inst_counts::5        425472                       # Inst counts: 1: ALU, 2: MAD, 3: CTRL, 4: SFU, 5: MEM, 6: TEX, 7: NOP
system.gpu.shader_cores0.inst_counts::6             0                       # Inst counts: 1: ALU, 2: MAD, 3: CTRL, 4: SFU, 5: MEM, 6: TEX, 7: NOP
system.gpu.shader_cores0.inst_counts::7             0                       # Inst counts: 1: ALU, 2: MAD, 3: CTRL, 4: SFU, 5: MEM, 6: TEX, 7: NOP
system.gpu.shader_cores0.activeCycles          134669                       # Number of cycles this shader was executing a CTA
system.gpu.shader_cores0.notStalledCycles        73940                       # Number of cycles this shader was actually executing at least one instance
system.gpu.shader_cores0.instInstances        2951936                       # Total instructions executed by all PEs in the core
system.gpu.shader_cores0.instPerCycle       21.919937                       # Instruction instances per cycle
system.gpu.shader_cores0.kernels_completed            2                       # Number of kernels completed
system.gpu.shader_cores0.lsq.data_tlb.hits            0                       # Number of hits in this TLB
system.gpu.shader_cores0.lsq.data_tlb.misses            0                       # Number of misses in this TLB
system.gpu.shader_cores0.lsq.data_tlb.hitRate          nan                       # Hit rate for this TLB
system.gpu.shader_cores0.lsq.warpInstBufActive::samples    190762926                       # Histogram of number of active warp inst buffers at a given time
system.gpu.shader_cores0.lsq.warpInstBufActive::mean    17.649542                       # Histogram of number of active warp inst buffers at a given time
system.gpu.shader_cores0.lsq.warpInstBufActive::gmean          nan                       # Histogram of number of active warp inst buffers at a given time
system.gpu.shader_cores0.lsq.warpInstBufActive::stdev    17.032617                       # Histogram of number of active warp inst buffers at a given time
[...]
system.ruby.L1Cache_Controller.NP.Inv    |          86     16.41%     16.41% |           0      0.00%     16.41% |          67     12.79%     29.20% |          76     14.50%     43.70% |          60     11.45%     55.15% |          64     12.21%     67.37% |           0      0.00%     67.37% |         171     32.63%    100.00%
system.ruby.L1Cache_Controller.NP.Inv::total          524                      
system.ruby.L1Cache_Controller.I.Load    |         304     73.79%     73.79% |           0      0.00%     73.79% |          30      7.28%     81.07% |          24      5.83%     86.89% |          17      4.13%     91.02% |          37      8.98%    100.00% |           0      0.00%    100.00% |           0      0.00%    100.00%
system.ruby.L1Cache_Controller.I.Load::total          412                      
system.ruby.L1Cache_Controller.I.Ifetch  |         610    100.00%    100.00% |           0      0.00%    100.00% |           0      0.00%    100.00% |           0      0.00%    100.00% |           0      0.00%    100.00% |           0      0.00%    100.00% |           0      0.00%    100.00% |           0      0.00%    100.00%
system.ruby.L1Cache_Controller.I.Ifetch::total          610                      
system.ruby.L1Cache_Controller.I.Store   |          48      6.88%      6.88% |           0      0.00%      6.88% |         148     21.20%     28.08% |         159     22.78%     50.86% |         182     26.07%     76.93% |         161     23.07%    100.00% |           0      0.00%    100.00% |           0      0.00%    100.00%
system.ruby.L1Cache_Controller.I.Store::total          698                      
system.ruby.L1Cache_Controller.I.L1_Replacement |         483     14.35%     14.35% |           0      0.00%     14.35% |         732     21.75%     36.10% |         698     20.74%     56.83% |         723     21.48%     78.31% |         711     21.12%     99.44% |           0      0.00%     99.44% |          19      0.56%    100.00%
system.ruby.L1Cache_Controller.I.L1_Replacement::total         3366                      
system.ruby.L1Cache_Controller.S.Load    |         250      2.45%      2.45% |           0      0.00%      2.45% |        2410     23.60%     26.04% |        2538     24.85%     50.89% |        2569     25.15%     76.04% |        2447     23.96%    100.00% |           0      0.00%    100.00% |           0      0.00%    100.00%
system.ruby.L1Cache_Controller.S.Load::total        10214                      
system.ruby.L1Cache_Controller.S.Ifetch  |    30327834    100.00%    100.00% |           0      0.00%    100.00% |           0      0.00%    100.00% |           0      0.00%    100.00% |           0      0.00%    100.00% |           0      0.00%    100.00% |           0      0.00%    100.00% |           0      0.00%    100.00%
system.ruby.L1Cache_Controller.S.Ifetch::total     30327834                      
system.ruby.L1Cache_Controller.S.Store   |           5      0.70%      0.70% |           0      0.00%      0.70% |         171     24.02%     24.72% |         214     30.06%     54.78% |         151     21.21%     75.98% |         171     24.02%    100.00% |           0      0.00%    100.00% |           0      0.00%    100.00%
system.ruby.L1Cache_Controller.S.Store::total          712                      
system.ruby.L1Cache_Controller.S.Inv     |         975     44.28%     44.28% |           0      0.00%     44.28% |         307     13.94%     58.22% |         285     12.94%     71.16% |         339     15.40%     86.56% |         294     13.35%     99.91% |           0      0.00%     99.91% |           2      0.09%    100.00%
system.ruby.L1Cache_Controller.S.Inv::total         2202                      
system.ruby.L1Cache_Controller.S.L1_Replacement |       12808     96.69%     96.69% |           0      0.00%     96.69% |          67      0.51%     97.20% |          76      0.57%     97.77% |          60      0.45%     98.23% |          64      0.48%     98.71% |           0      0.00%     98.71% |         171      1.29%    100.00%
system.ruby.L1Cache_Controller.S.L1_Replacement::total        13246                      
system.ruby.L1Cache_Controller.E.Load    |     1427782     99.39%     99.39% |           0      0.00%     99.39% |        2209      0.15%     99.54% |        2145      0.15%     99.69% |        2283      0.16%     99.85% |        2187      0.15%    100.00% |           0      0.00%    100.00% |           0      0.00%    100.00%
system.ruby.L1Cache_Controller.E.Load::total      1436606                      
system.ruby.L1Cache_Controller.E.Store   |        5567     48.61%     48.61% |           0      0.00%     48.61% |        1456     12.71%     61.32% |        1464     12.78%     74.10% |        1498     13.08%     87.18% |        1468     12.82%    100.00% |           0      0.00%    100.00% |           0      0.00%    100.00%
system.ruby.L1Cache_Controller.E.Store::total        11453                      
system.ruby.L1Cache_Controller.E.Inv     |         318     99.69%     99.69% |           0      0.00%     99.69% |           0      0.00%     99.69% |           0      0.00%     99.69% |           1      0.31%    100.00% |           0      0.00%    100.00% |           0      0.00%    100.00% |           0      0.00%    100.00%
system.ruby.L1Cache_Controller.E.Inv::total          319                      
system.ruby.L1Cache_Controller.E.L1_Replacement |        8582     49.00%     49.00% |           0      0.00%     49.00% |           0      0.00%     49.00% |           0      0.00%     49.00% |           0      0.00%     49.00% |           0      0.00%     49.00% |           0      0.00%     49.00% |        8932     51.00%    100.00%
system.ruby.L1Cache_Controller.E.L1_Replacement::total        17514                      
system.ruby.L1Cache_Controller.E.Fwd_GETX |           8    100.00%    100.00% |           0      0.00%    100.00% |           0      0.00%    100.00% |           0      0.00%    100.00% |           0      0.00%    100.00% |           0      0.00%    100.00% |           0      0.00%    100.00% |           0      0.00%    100.00%
system.ruby.L1Cache_Controller.E.Fwd_GETX::total            8                      
system.ruby.L1Cache_Controller.E.Fwd_GETS |           6      1.95%      1.95% |           0      0.00%      1.95% |          81     26.30%     28.25% |          68     22.08%     50.32% |          77     25.00%     75.32% |          76     24.68%    100.00% |           0      0.00%    100.00% |           0      0.00%    100.00%
system.ruby.L1Cache_Controller.E.Fwd_GETS::total          308                      
system.ruby.L1Cache_Controller.M.Load    |     5024597     99.99%     99.99% |           0      0.00%     99.99% |         105      0.00%    100.00% |          69      0.00%    100.00% |          82      0.00%    100.00% |          73      0.00%    100.00% |           0      0.00%    100.00% |           0      0.00%    100.00%
system.ruby.L1Cache_Controller.M.Load::total      5024926                      
system.ruby.L1Cache_Controller.M.Store   |     4043948     99.69%     99.69% |           0      0.00%     99.69% |        3135      0.08%     99.77% |        3133      0.08%     99.84% |        3212      0.08%     99.92% |        3124      0.08%    100.00% |           0      0.00%    100.00% |           0      0.00%    100.00%
system.ruby.L1Cache_Controller.M.Store::total      4056552                      
system.ruby.L1Cache_Controller.M.Inv     |         315      7.79%      7.79% |           0      0.00%      7.79% |         946     23.39%     31.18% |         875     21.64%     52.82% |         940     23.24%     76.06% |         943     23.32%     99.38% |           0      0.00%     99.38% |          25      0.62%    100.00%
system.ruby.L1Cache_Controller.M.Inv::total         4044                      
system.ruby.L1Cache_Controller.M.L1_Replacement |       21061     63.86%     63.86% |           0      0.00%     63.86% |         673      2.04%     65.90% |         751      2.28%     68.17% |         743      2.25%     70.43% |         693      2.10%     72.53% |           0      0.00%     72.53% |        9061     27.47%    100.00%
system.ruby.L1Cache_Controller.M.L1_Replacement::total        32982                      
system.ruby.L1Cache_Controller.M.Fwd_GETX |           2      0.25%      0.25% |           0      0.00%      0.25% |         181     22.88%     23.14% |         246     31.10%     54.24% |         166     20.99%     75.22% |         196     24.78%    100.00% |           0      0.00%    100.00% |           0      0.00%    100.00%
system.ruby.L1Cache_Controller.M.Fwd_GETX::total          791                      
system.ruby.L1Cache_Controller.M.Fwd_GETS |           2      1.31%      1.31% |           0      0.00%      1.31% |          37     24.18%     25.49% |          28     18.30%     43.79% |          45     29.41%     73.20% |          31     20.26%     93.46% |           0      0.00%     93.46% |          10      6.54%    100.00%
system.ruby.L1Cache_Controller.M.Fwd_GETS::total          153                      
system.ruby.L1Cache_Controller.IS.L1_Replacement |           0      0.00%      0.00% |           0      0.00%      0.00% |           6      0.00%      0.00% |           4      0.00%      0.01% |           0      0.00%      0.01% |           4      0.00%      0.01% |           0      0.00%      0.01% |      120330     99.99%    100.00%
system.ruby.L1Cache_Controller.IS.L1_Replacement::total       120344                      
system.ruby.L1Cache_Controller.IS.Data_Exclusive |       14510     48.97%     48.97% |           0      0.00%     48.97% |        1537      5.19%     54.16% |        1532      5.17%     59.33% |        1576      5.32%     64.65% |        1544      5.21%     69.86% |           0      0.00%     69.86% |        8932     30.14%    100.00%
system.ruby.L1Cache_Controller.IS.Data_Exclusive::total        29631                      
system.ruby.L1Cache_Controller.IS.DataS_fromL1 |          11      2.39%      2.39% |           0      0.00%      2.39% |          88     19.09%     21.48% |          85     18.44%     39.91% |          88     19.09%     59.00% |          88     19.09%     78.09% |           0      0.00%     78.09% |         101     21.91%    100.00%
system.ruby.L1Cache_Controller.IS.DataS_fromL1::total          461                      
system.ruby.L1Cache_Controller.IS.Data_all_Acks |       13845     90.41%     90.41% |           0      0.00%     90.41% |         339      2.21%     92.62% |         394      2.57%     95.19% |         340      2.22%     97.41% |         334      2.18%     99.60% |           0      0.00%     99.60% |          62      0.40%    100.00%
system.ruby.L1Cache_Controller.IS.Data_all_Acks::total        15314                      
system.ruby.L1Cache_Controller.IM.L1_Replacement |           0      0.00%      0.00% |           0      0.00%      0.00% |           0      0.00%      0.00% |           0      0.00%      0.00% |           0      0.00%      0.00% |           0      0.00%      0.00% |           0      0.00%      0.00% |      122886    100.00%    100.00%
system.ruby.L1Cache_Controller.IM.L1_Replacement::total       122886                      
system.ruby.L1Cache_Controller.IM.Data_all_Acks |       16034     61.56%     61.56% |           0      0.00%     61.56% |         210      0.81%     62.36% |         228      0.88%     63.24% |         249      0.96%     64.20% |         230      0.88%     65.08% |           0      0.00%     65.08% |        9096     34.92%    100.00%
system.ruby.L1Cache_Controller.IM.Data_all_Acks::total        26047                      
system.ruby.L1Cache_Controller.SM.Inv    |           0      0.00%      0.00% |           0      0.00%      0.00% |           0      0.00%      0.00% |           6     37.50%     37.50% |           4     25.00%     62.50% |           6     37.50%    100.00% |           0      0.00%    100.00% |           0      0.00%    100.00%
system.ruby.L1Cache_Controller.SM.Inv::total           16                      
system.ruby.L1Cache_Controller.SM.Ack    |           9      1.29%      1.29% |           0      0.00%      1.29% |         171     24.43%     25.71% |         208     29.71%     55.43% |         147     21.00%     76.43% |         165     23.57%    100.00% |           0      0.00%    100.00% |           0      0.00%    100.00%
system.ruby.L1Cache_Controller.SM.Ack::total          700                      
system.ruby.L1Cache_Controller.SM.Ack_all |           5      0.72%      0.72% |           0      0.00%      0.72% |         171     24.57%     25.29% |         208     29.89%     55.17% |         147     21.12%     76.29% |         165     23.71%    100.00% |           0      0.00%    100.00% |           0      0.00%    100.00%
system.ruby.L1Cache_Controller.SM.Ack_all::total          696                      
system.ruby.L1Cache_Controller.M_I.Ifetch |           2    100.00%    100.00% |           0      0.00%    100.00% |           0      0.00%    100.00% |           0      0.00%    100.00% |           0      0.00%    100.00% |           0      0.00%    100.00% |           0      0.00%    100.00% |           0      0.00%    100.00%
system.ruby.L1Cache_Controller.M_I.Ifetch::total            2                      
system.ruby.L1Cache_Controller.M_I.Inv   |           0      0.00%      0.00% |           0      0.00%      0.00% |           2     66.67%     66.67% |           1     33.33%    100.00% |           0      0.00%    100.00% |           0      0.00%    100.00% |           0      0.00%    100.00% |           0      0.00%    100.00%
system.ruby.L1Cache_Controller.M_I.Inv::total            3                      
system.ruby.L1Cache_Controller.M_I.WB_Ack |       29643     58.71%     58.71% |           0      0.00%     58.71% |         671      1.33%     60.04% |         750      1.49%     61.52% |         743      1.47%     62.99% |         693      1.37%     64.37% |           0      0.00%     64.37% |       17993     35.63%    100.00%
system.ruby.L1Cache_Controller.M_I.WB_Ack::total        50493                      
system.ruby.L1Cache_Controller.SINK_WB_ACK.WB_Ack |           0      0.00%      0.00% |           0      0.00%      0.00% |           2     66.67%     66.67% |           1     33.33%    100.00% |           0      0.00%    100.00% |           0      0.00%    100.00% |           0      0.00%    100.00% |           0      0.00%    100.00%
system.ruby.L1Cache_Controller.SINK_WB_ACK.WB_Ack::total            3                      
system.ruby.L2Cache_Controller.L1_GET_INSTR        13891      0.00%      0.00%
system.ruby.L2Cache_Controller.L1_GETS          31527      0.00%      0.00%
system.ruby.L2Cache_Controller.L1_GETX          26076      0.00%      0.00%
system.ruby.L2Cache_Controller.L1_UPGRADE          711      0.00%      0.00%
system.ruby.L2Cache_Controller.L1_PUTX          50493      0.00%      0.00%
system.ruby.L2Cache_Controller.L1_PUTX_old            4      0.00%      0.00%
system.ruby.L2Cache_Controller.L2_Replacement        30771      0.00%      0.00%
system.ruby.L2Cache_Controller.L2_Replacement_clean        21530      0.00%      0.00%
system.ruby.L2Cache_Controller.Mem_Data         54349      0.00%      0.00%
system.ruby.L2Cache_Controller.Mem_Ack          52301      0.00%      0.00%
system.ruby.L2Cache_Controller.WB_Data           4200      0.00%      0.00%
system.ruby.L2Cache_Controller.WB_Data_clean          308      0.00%      0.00%
system.ruby.L2Cache_Controller.Ack                617      0.00%      0.00%
system.ruby.L2Cache_Controller.Ack_all           1744      0.00%      0.00%
system.ruby.L2Cache_Controller.Unblock            461      0.00%      0.00%
system.ruby.L2Cache_Controller.Exclusive_Unblock        56374      0.00%      0.00%
system.ruby.L2Cache_Controller.NP.L1_GET_INSTR         1135      0.00%      0.00%
system.ruby.L2Cache_Controller.NP.L1_GETS        28509      0.00%      0.00%
system.ruby.L2Cache_Controller.NP.L1_GETX        24705      0.00%      0.00%
system.ruby.L2Cache_Controller.NP.L1_PUTX_old            1      0.00%      0.00%
system.ruby.L2Cache_Controller.SS.L1_GET_INSTR        12721      0.00%      0.00%
system.ruby.L2Cache_Controller.SS.L1_GETS          156      0.00%      0.00%
system.ruby.L2Cache_Controller.SS.L1_UPGRADE          696      0.00%      0.00%
system.ruby.L2Cache_Controller.SS.L2_Replacement          104      0.00%      0.00%
system.ruby.L2Cache_Controller.SS.L2_Replacement_clean         1321      0.00%      0.00%
system.ruby.L2Cache_Controller.M.L1_GET_INSTR            2      0.00%      0.00%
system.ruby.L2Cache_Controller.M.L1_GETS         1723      0.00%      0.00%
system.ruby.L2Cache_Controller.M.L1_GETX          543      0.00%      0.00%
system.ruby.L2Cache_Controller.M.L2_Replacement        30518      0.00%      0.00%
system.ruby.L2Cache_Controller.M.L2_Replacement_clean        15992      0.00%      0.00%
system.ruby.L2Cache_Controller.MT.L1_GETS          461      0.00%      0.00%
system.ruby.L2Cache_Controller.MT.L1_GETX          799      0.00%      0.00%
system.ruby.L2Cache_Controller.MT.L1_PUTX        50493      0.00%      0.00%
system.ruby.L2Cache_Controller.MT.L2_Replacement          149      0.00%      0.00%
system.ruby.L2Cache_Controller.MT.L2_Replacement_clean         4217      0.00%      0.00%
system.ruby.L2Cache_Controller.M_I.L1_GETS            4      0.00%      0.00%
system.ruby.L2Cache_Controller.M_I.L1_PUTX_old            2      0.00%      0.00%
system.ruby.L2Cache_Controller.M_I.Mem_Ack        52301      0.00%      0.00%
system.ruby.L2Cache_Controller.MT_I.WB_Data           42      0.00%      0.00%
system.ruby.L2Cache_Controller.MT_I.Ack_all          107      0.00%      0.00%
system.ruby.L2Cache_Controller.MCT_I.L1_PUTX_old            1      0.00%      0.00%
system.ruby.L2Cache_Controller.MCT_I.WB_Data         4005      0.00%      0.00%
system.ruby.L2Cache_Controller.MCT_I.Ack_all          212      0.00%      0.00%
system.ruby.L2Cache_Controller.I_I.Ack            513      0.00%      0.00%
system.ruby.L2Cache_Controller.I_I.Ack_all         1321      0.00%      0.00%
system.ruby.L2Cache_Controller.S_I.Ack            104      0.00%      0.00%
system.ruby.L2Cache_Controller.S_I.Ack_all          104      0.00%      0.00%
system.ruby.L2Cache_Controller.ISS.L1_GETS          601      0.00%      0.00%
system.ruby.L2Cache_Controller.ISS.Mem_Data        27908      0.00%      0.00%
system.ruby.L2Cache_Controller.IS.L1_GET_INSTR           33      0.00%      0.00%
system.ruby.L2Cache_Controller.IS.L1_GETS           65      0.00%      0.00%
system.ruby.L2Cache_Controller.IS.Mem_Data         1736      0.00%      0.00%
system.ruby.L2Cache_Controller.IM.L1_GETX           24      0.00%      0.00%
system.ruby.L2Cache_Controller.IM.Mem_Data        24705      0.00%      0.00%
system.ruby.L2Cache_Controller.SS_MB.L1_GETX            1      0.00%      0.00%
system.ruby.L2Cache_Controller.SS_MB.L1_UPGRADE           15      0.00%      0.00%
system.ruby.L2Cache_Controller.SS_MB.Exclusive_Unblock          696      0.00%      0.00%
system.ruby.L2Cache_Controller.MT_MB.L1_GETS            3      0.00%      0.00%
system.ruby.L2Cache_Controller.MT_MB.L1_GETX            4      0.00%      0.00%
system.ruby.L2Cache_Controller.MT_MB.Exclusive_Unblock        55678      0.00%      0.00%
system.ruby.L2Cache_Controller.MT_IIB.L1_GETS            5      0.00%      0.00%
system.ruby.L2Cache_Controller.MT_IIB.WB_Data           39      0.00%      0.00%
system.ruby.L2Cache_Controller.MT_IIB.WB_Data_clean            7      0.00%      0.00%
system.ruby.L2Cache_Controller.MT_IIB.Unblock          415      0.00%      0.00%
system.ruby.L2Cache_Controller.MT_IB.WB_Data          114      0.00%      0.00%
system.ruby.L2Cache_Controller.MT_IB.WB_Data_clean          301      0.00%      0.00%
system.ruby.L2Cache_Controller.MT_SB.Unblock           46      0.00%      0.00%

---------- End Simulation Statistics   ----------
