
---------- Begin Simulation Statistics ----------
sim_seconds                                  0.001453                       # Number of seconds simulated
sim_ticks                                  1452911000                       # Number of ticks simulated
final_tick                                 1452911000                       # Number of ticks from beginning of simulation (restored from checkpoints and never reset)
sim_freq                                 1000000000000                       # Frequency of simulated ticks
host_inst_rate                                 365364                       # Simulator instruction rate (inst/s)
host_op_rate                                   714294                       # Simulator op (including micro ops) rate (op/s)
host_tick_rate                              686712013                       # Simulator tick rate (ticks/s)
host_mem_usage                                4505740                       # Number of bytes of host memory used
host_seconds                                     2.12                       # Real time elapsed on the host
sim_insts                                      773012                       # Number of instructions simulated
sim_ops                                       1511261                       # Number of ops (including micro ops) simulated
system.voltage_domain.voltage                       1                       # Voltage in Volts
system.clk_domain.clock                          1000                       # Clock period in ticks
system.mem_ctrls.bytes_read::ruby.dir_cntrl0       109824                       # Number of bytes read from this memory
system.mem_ctrls.bytes_read::total             109824                       # Number of bytes read from this memory
system.mem_ctrls.bytes_written::ruby.dir_cntrl0        11136                       # Number of bytes written to this memory
system.mem_ctrls.bytes_written::total           11136                       # Number of bytes written to this memory
system.mem_ctrls.num_reads::ruby.dir_cntrl0          858                       # Number of read requests responded to by this memory
system.mem_ctrls.num_reads::total                 858                       # Number of read requests responded to by this memory
system.mem_ctrls.num_writes::ruby.dir_cntrl0           87                       # Number of write requests responded to by this memory
system.mem_ctrls.num_writes::total                 87                       # Number of write requests responded to by this memory
system.mem_ctrls.bw_read::ruby.dir_cntrl0     75588938                       # Total read bandwidth from this memory (bytes/s)
system.mem_ctrls.bw_read::total              75588938                       # Total read bandwidth from this memory (bytes/s)
system.mem_ctrls.bw_write::ruby.dir_cntrl0      7664613                       # Write bandwidth from this memory (bytes/s)
system.mem_ctrls.bw_write::total              7664613                       # Write bandwidth from this memory (bytes/s)
system.mem_ctrls.bw_total::ruby.dir_cntrl0     83253551                       # Total bandwidth to/from this memory (bytes/s)
system.mem_ctrls.bw_total::total             83253551                       # Total bandwidth to/from this memory (bytes/s)
system.mem_ctrls.readReqs                         858                       # Number of read requests accepted
system.mem_ctrls.writeReqs                         87                       # Number of write requests accepted
system.mem_ctrls.readBursts                      1716                       # Number of DRAM read bursts, including those serviced by the write queue
system.mem_ctrls.writeBursts                      174                       # Number of DRAM write bursts, including those merged in the write queue
system.mem_ctrls.bytesReadDRAM                 106752                       # Total number of bytes read from DRAM
system.mem_ctrls.bytesReadWrQ                    3072                       # Total number of bytes read from write queue
system.mem_ctrls.bytesWritten                    8896                       # Total number of bytes written to DRAM
system.mem_ctrls.bytesReadSys                  109824                       # Total read bytes from the system interface side
system.mem_ctrls.bytesWrittenSys                11136                       # Total written bytes from the system interface side
system.mem_ctrls.servicedByWrQ                     48                       # Number of DRAM read bursts serviced by the write queue
system.mem_ctrls.mergedWrBursts                    13                       # Number of DRAM write bursts merged with an existing one
system.mem_ctrls.neitherReadNorWriteReqs            0                       # Number of requests that are neither read nor write
system.mem_ctrls.perBankRdBursts::0                92                       # Per bank write bursts
system.mem_ctrls.perBankRdBursts::1                92                       # Per bank write bursts
system.mem_ctrls.perBankRdBursts::2               116                       # Per bank write bursts
system.mem_ctrls.perBankRdBursts::3                66                       # Per bank write bursts
system.mem_ctrls.perBankRdBursts::4                30                       # Per bank write bursts
system.mem_ctrls.perBankRdBursts::5                52                       # Per bank write bursts
system.mem_ctrls.perBankRdBursts::6               186                       # Per bank write bursts
system.mem_ctrls.perBankRdBursts::7                82                       # Per bank write bursts
system.mem_ctrls.perBankRdBursts::8               192                       # Per bank write bursts
system.mem_ctrls.perBankRdBursts::9               124                       # Per bank write bursts
system.mem_ctrls.perBankRdBursts::10              132                       # Per bank write bursts
system.mem_ctrls.perBankRdBursts::11              244                       # Per bank write bursts
system.mem_ctrls.perBankRdBursts::12              106                       # Per bank write bursts
system.mem_ctrls.perBankRdBursts::13               84                       # Per bank write bursts
system.mem_ctrls.perBankRdBursts::14               58                       # Per bank write bursts
system.mem_ctrls.perBankRdBursts::15               12                       # Per bank write bursts
system.mem_ctrls.perBankWrBursts::0                 0                       # Per bank write bursts
system.mem_ctrls.perBankWrBursts::1                 0                       # Per bank write bursts
system.mem_ctrls.perBankWrBursts::2                 0                       # Per bank write bursts
system.mem_ctrls.perBankWrBursts::3                 0                       # Per bank write bursts
system.mem_ctrls.perBankWrBursts::4                 0                       # Per bank write bursts
system.mem_ctrls.perBankWrBursts::5                 0                       # Per bank write bursts
system.mem_ctrls.perBankWrBursts::6                 0                       # Per bank write bursts
system.mem_ctrls.perBankWrBursts::7                 0                       # Per bank write bursts
system.mem_ctrls.perBankWrBursts::8                 0                       # Per bank write bursts
system.mem_ctrls.perBankWrBursts::9                 0                       # Per bank write bursts
system.mem_ctrls.perBankWrBursts::10               22                       # Per bank write bursts
system.mem_ctrls.perBankWrBursts::11              117                       # Per bank write bursts
system.mem_ctrls.perBankWrBursts::12                0                       # Per bank write bursts
system.mem_ctrls.perBankWrBursts::13                0                       # Per bank write bursts
system.mem_ctrls.perBankWrBursts::14                0                       # Per bank write bursts
system.mem_ctrls.perBankWrBursts::15                0                       # Per bank write bursts
system.mem_ctrls.numRdRetry                         0                       # Number of times read queue was full causing retry
system.mem_ctrls.numWrRetry                         0                       # Number of times write queue was full causing retry
system.mem_ctrls.totGap                    1452858000                       # Total gap between requests
system.mem_ctrls.readPktSize::0                     0                       # Read request sizes (log2)
system.mem_ctrls.readPktSize::1                     0                       # Read request sizes (log2)
system.mem_ctrls.readPktSize::2                     0                       # Read request sizes (log2)
system.mem_ctrls.readPktSize::3                     0                       # Read request sizes (log2)
system.mem_ctrls.readPktSize::4                     0                       # Read request sizes (log2)
system.mem_ctrls.readPktSize::5                     0                       # Read request sizes (log2)
system.mem_ctrls.readPktSize::6                  1716                       # Read request sizes (log2)
system.mem_ctrls.writePktSize::0                    0                       # Write request sizes (log2)
system.mem_ctrls.writePktSize::1                    0                       # Write request sizes (log2)
system.mem_ctrls.writePktSize::2                    0                       # Write request sizes (log2)
system.mem_ctrls.writePktSize::3                    0                       # Write request sizes (log2)
system.mem_ctrls.writePktSize::4                    0                       # Write request sizes (log2)
system.mem_ctrls.writePktSize::5                    0                       # Write request sizes (log2)
system.mem_ctrls.writePktSize::6                  174                       # Write request sizes (log2)
system.mem_ctrls.rdQLenPdf::0                     812                       # What read queue length does an incoming req see
system.mem_ctrls.rdQLenPdf::1                     812                       # What read queue length does an incoming req see
system.mem_ctrls.rdQLenPdf::2                       6                       # What read queue length does an incoming req see
system.mem_ctrls.rdQLenPdf::3                       6                       # What read queue length does an incoming req see
system.mem_ctrls.rdQLenPdf::4                       4                       # What read queue length does an incoming req see
system.mem_ctrls.rdQLenPdf::5                       3                       # What read queue length does an incoming req see
system.mem_ctrls.rdQLenPdf::6                       3                       # What read queue length does an incoming req see
system.mem_ctrls.rdQLenPdf::7                       2                       # What read queue length does an incoming req see
system.mem_ctrls.rdQLenPdf::8                       2                       # What read queue length does an incoming req see
system.mem_ctrls.rdQLenPdf::9                       2                       # What read queue length does an incoming req see
system.mem_ctrls.rdQLenPdf::10                      2                       # What read queue length does an incoming req see
system.mem_ctrls.rdQLenPdf::11                      2                       # What read queue length does an incoming req see
system.mem_ctrls.rdQLenPdf::12                      2                       # What read queue length does an incoming req see
system.mem_ctrls.rdQLenPdf::13                      2                       # What read queue length does an incoming req see
system.mem_ctrls.rdQLenPdf::14                      2                       # What read queue length does an incoming req see
system.mem_ctrls.rdQLenPdf::15                      2                       # What read queue length does an incoming req see
system.mem_ctrls.rdQLenPdf::16                      1                       # What read queue length does an incoming req see
system.mem_ctrls.rdQLenPdf::17                      1                       # What read queue length does an incoming req see
system.mem_ctrls.rdQLenPdf::18                      1                       # What read queue length does an incoming req see
system.mem_ctrls.rdQLenPdf::19                      1                       # What read queue length does an incoming req see
system.mem_ctrls.rdQLenPdf::20                      0                       # What read queue length does an incoming req see
system.mem_ctrls.rdQLenPdf::21                      0                       # What read queue length does an incoming req see
system.mem_ctrls.rdQLenPdf::22                      0                       # What read queue length does an incoming req see
system.mem_ctrls.rdQLenPdf::23                      0                       # What read queue length does an incoming req see
system.mem_ctrls.rdQLenPdf::24                      0                       # What read queue length does an incoming req see
system.mem_ctrls.rdQLenPdf::25                      0                       # What read queue length does an incoming req see
system.mem_ctrls.rdQLenPdf::26                      0                       # What read queue length does an incoming req see
system.mem_ctrls.rdQLenPdf::27                      0                       # What read queue length does an incoming req see
system.mem_ctrls.rdQLenPdf::28                      0                       # What read queue length does an incoming req see
system.mem_ctrls.rdQLenPdf::29                      0                       # What read queue length does an incoming req see
system.mem_ctrls.rdQLenPdf::30                      0                       # What read queue length does an incoming req see
system.mem_ctrls.rdQLenPdf::31                      0                       # What read queue length does an incoming req see
system.mem_ctrls.wrQLenPdf::0                       1                       # What write queue length does an incoming req see
system.mem_ctrls.wrQLenPdf::1                       1                       # What write queue length does an incoming req see
system.mem_ctrls.wrQLenPdf::2                       1                       # What write queue length does an incoming req see
system.mem_ctrls.wrQLenPdf::3                       1                       # What write queue length does an incoming req see
system.mem_ctrls.wrQLenPdf::4                       1                       # What write queue length does an incoming req see
system.mem_ctrls.wrQLenPdf::5                       1                       # What write queue length does an incoming req see
system.mem_ctrls.wrQLenPdf::6                       1                       # What write queue length does an incoming req see
system.mem_ctrls.wrQLenPdf::7                       1                       # What write queue length does an incoming req see
system.mem_ctrls.wrQLenPdf::8                       1                       # What write queue length does an incoming req see
system.mem_ctrls.wrQLenPdf::9                       1                       # What write queue length does an incoming req see
system.mem_ctrls.wrQLenPdf::10                      1                       # What write queue length does an incoming req see
system.mem_ctrls.wrQLenPdf::11                      1                       # What write queue length does an incoming req see
system.mem_ctrls.wrQLenPdf::12                      1                       # What write queue length does an incoming req see
system.mem_ctrls.wrQLenPdf::13                      1                       # What write queue length does an incoming req see
system.mem_ctrls.wrQLenPdf::14                      1                       # What write queue length does an incoming req see
system.mem_ctrls.wrQLenPdf::15                      4                       # What write queue length does an incoming req see
system.mem_ctrls.wrQLenPdf::16                      4                       # What write queue length does an incoming req see
system.mem_ctrls.wrQLenPdf::17                      4                       # What write queue length does an incoming req see
system.mem_ctrls.wrQLenPdf::18                      4                       # What write queue length does an incoming req see
system.mem_ctrls.wrQLenPdf::19                      4                       # What write queue length does an incoming req see
system.mem_ctrls.wrQLenPdf::20                      4                       # What write queue length does an incoming req see
system.mem_ctrls.wrQLenPdf::21                      4                       # What write queue length does an incoming req see
system.mem_ctrls.wrQLenPdf::22                      4                       # What write queue length does an incoming req see
system.mem_ctrls.wrQLenPdf::23                      4                       # What write queue length does an incoming req see
system.mem_ctrls.wrQLenPdf::24                      4                       # What write queue length does an incoming req see
system.mem_ctrls.wrQLenPdf::25                      4                       # What write queue length does an incoming req see
system.mem_ctrls.wrQLenPdf::26                      5                       # What write queue length does an incoming req see
system.mem_ctrls.wrQLenPdf::27                      7                       # What write queue length does an incoming req see
system.mem_ctrls.wrQLenPdf::28                      8                       # What write queue length does an incoming req see
system.mem_ctrls.wrQLenPdf::29                     11                       # What write queue length does an incoming req see
system.mem_ctrls.wrQLenPdf::30                     14                       # What write queue length does an incoming req see
system.mem_ctrls.wrQLenPdf::31                     13                       # What write queue length does an incoming req see
system.mem_ctrls.wrQLenPdf::32                     15                       # What write queue length does an incoming req see
system.mem_ctrls.wrQLenPdf::33                     10                       # What write queue length does an incoming req see
system.mem_ctrls.wrQLenPdf::34                      4                       # What write queue length does an incoming req see
system.mem_ctrls.wrQLenPdf::35                      4                       # What write queue length does an incoming req see
system.mem_ctrls.wrQLenPdf::36                      3                       # What write queue length does an incoming req see
system.mem_ctrls.wrQLenPdf::37                      3                       # What write queue length does an incoming req see
system.mem_ctrls.wrQLenPdf::38                      3                       # What write queue length does an incoming req see
system.mem_ctrls.wrQLenPdf::39                      2                       # What write queue length does an incoming req see
system.mem_ctrls.wrQLenPdf::40                      0                       # What write queue length does an incoming req see
system.mem_ctrls.wrQLenPdf::41                      0                       # What write queue length does an incoming req see
system.mem_ctrls.wrQLenPdf::42                      0                       # What write queue length does an incoming req see
system.mem_ctrls.wrQLenPdf::43                      0                       # What write queue length does an incoming req see
system.mem_ctrls.wrQLenPdf::44                      0                       # What write queue length does an incoming req see
system.mem_ctrls.wrQLenPdf::45                      0                       # What write queue length does an incoming req see
system.mem_ctrls.wrQLenPdf::46                      0                       # What write queue length does an incoming req see
system.mem_ctrls.wrQLenPdf::47                      0                       # What write queue length does an incoming req see
system.mem_ctrls.wrQLenPdf::48                      0                       # What write queue length does an incoming req see
system.mem_ctrls.wrQLenPdf::49                      0                       # What write queue length does an incoming req see
system.mem_ctrls.wrQLenPdf::50                      0                       # What write queue length does an incoming req see
system.mem_ctrls.wrQLenPdf::51                      0                       # What write queue length does an incoming req see
system.mem_ctrls.wrQLenPdf::52                      0                       # What write queue length does an incoming req see
system.mem_ctrls.wrQLenPdf::53                      0                       # What write queue length does an incoming req see
system.mem_ctrls.wrQLenPdf::54                      0                       # What write queue length does an incoming req see
system.mem_ctrls.wrQLenPdf::55                      0                       # What write queue length does an incoming req see
system.mem_ctrls.wrQLenPdf::56                      0                       # What write queue length does an incoming req see
system.mem_ctrls.wrQLenPdf::57                      0                       # What write queue length does an incoming req see
system.mem_ctrls.wrQLenPdf::58                      0                       # What write queue length does an incoming req see
system.mem_ctrls.wrQLenPdf::59                      0                       # What write queue length does an incoming req see
system.mem_ctrls.wrQLenPdf::60                      0                       # What write queue length does an incoming req see
system.mem_ctrls.wrQLenPdf::61                      0                       # What write queue length does an incoming req see
system.mem_ctrls.wrQLenPdf::62                      0                       # What write queue length does an incoming req see
system.mem_ctrls.wrQLenPdf::63                      0                       # What write queue length does an incoming req see
system.mem_ctrls.bytesPerActivate::samples          333                       # Bytes accessed per row activation
system.mem_ctrls.bytesPerActivate::mean    339.603604                       # Bytes accessed per row activation
system.mem_ctrls.bytesPerActivate::gmean   251.950931                       # Bytes accessed per row activation
system.mem_ctrls.bytesPerActivate::stdev   285.326423                       # Bytes accessed per row activation
system.mem_ctrls.bytesPerActivate::128-255          157     47.15%     47.15% # Bytes accessed per row activation
system.mem_ctrls.bytesPerActivate::256-383           62     18.62%     65.77% # Bytes accessed per row activation
system.mem_ctrls.bytesPerActivate::384-511           29      8.71%     74.47% # Bytes accessed per row activation
system.mem_ctrls.bytesPerActivate::512-639           20      6.01%     80.48% # Bytes accessed per row activation
system.mem_ctrls.bytesPerActivate::640-767           16      4.80%     85.29% # Bytes accessed per row activation
system.mem_ctrls.bytesPerActivate::768-895           16      4.80%     90.09% # Bytes accessed per row activation
system.mem_ctrls.bytesPerActivate::896-1023            6      1.80%     91.89% # Bytes accessed per row activation
system.mem_ctrls.bytesPerActivate::1024-1151           27      8.11%    100.00% # Bytes accessed per row activation
system.mem_ctrls.bytesPerActivate::total          333                       # Bytes accessed per row activation
system.mem_ctrls.rdPerTurnAround::samples            4                       # Reads before turning the bus around for writes
system.mem_ctrls.rdPerTurnAround::mean     344.500000                       # Reads before turning the bus around for writes
system.mem_ctrls.rdPerTurnAround::gmean    114.181085                       # Reads before turning the bus around for writes
system.mem_ctrls.rdPerTurnAround::stdev    554.777132                       # Reads before turning the bus around for writes
system.mem_ctrls.rdPerTurnAround::0-63              2     50.00%     50.00% # Reads before turning the bus around for writes
system.mem_ctrls.rdPerTurnAround::64-127            1     25.00%     75.00% # Reads before turning the bus around for writes
system.mem_ctrls.rdPerTurnAround::1152-1215            1     25.00%    100.00% # Reads before turning the bus around for writes
system.mem_ctrls.rdPerTurnAround::total             4                       # Reads before turning the bus around for writes
system.mem_ctrls.wrPerTurnAround::samples            4                       # Writes before turning the bus around for reads
system.mem_ctrls.wrPerTurnAround::mean      34.750000                       # Writes before turning the bus around for reads
system.mem_ctrls.wrPerTurnAround::gmean     33.566690                       # Writes before turning the bus around for reads
system.mem_ctrls.wrPerTurnAround::stdev     10.563301                       # Writes before turning the bus around for reads
system.mem_ctrls.wrPerTurnAround::24                1     25.00%     25.00% # Writes before turning the bus around for reads
system.mem_ctrls.wrPerTurnAround::29                1     25.00%     50.00% # Writes before turning the bus around for reads
system.mem_ctrls.wrPerTurnAround::38                1     25.00%     75.00% # Writes before turning the bus around for reads
system.mem_ctrls.wrPerTurnAround::48                1     25.00%    100.00% # Writes before turning the bus around for reads
system.mem_ctrls.wrPerTurnAround::total             4                       # Writes before turning the bus around for reads
system.mem_ctrls.totQLat                     23158748                       # Total ticks spent queuing
system.mem_ctrls.totMemAccLat                54433748                       # Total ticks spent from burst creation until serviced by the DRAM
system.mem_ctrls.totBusLat                    8340000                       # Total ticks spent in databus transfers
system.mem_ctrls.avgQLat                     13884.14                       # Average queueing delay per DRAM burst
system.mem_ctrls.avgBusLat                    5000.00                       # Average bus latency per DRAM burst
system.mem_ctrls.avgMemAccLat                32634.14                       # Average memory access latency per DRAM burst
system.mem_ctrls.avgRdBW                        73.47                       # Average DRAM read bandwidth in MiByte/s
system.mem_ctrls.avgWrBW                         6.12                       # Average achieved write bandwidth in MiByte/s
system.mem_ctrls.avgRdBWSys                     75.59                       # Average system read bandwidth in MiByte/s
system.mem_ctrls.avgWrBWSys                      7.66                       # Average system write bandwidth in MiByte/s
system.mem_ctrls.peakBW                      12800.00                       # Theoretical peak bandwidth in MiByte/s
system.mem_ctrls.busUtil                         0.62                       # Data bus utilization in percentage
system.mem_ctrls.busUtilRead                     0.57                       # Data bus utilization in percentage for reads
system.mem_ctrls.busUtilWrite                    0.05                       # Data bus utilization in percentage for writes
system.mem_ctrls.avgRdQLen                       2.06                       # Average read queue length when enqueuing
system.mem_ctrls.avgWrQLen                      29.27                       # Average write queue length when enqueuing
system.mem_ctrls.readRowHits                     1340                       # Number of row buffer hits during reads
system.mem_ctrls.writeRowHits                     127                       # Number of row buffer hits during writes
system.mem_ctrls.readRowHitRate                 80.34                       # Row buffer hit rate for reads
system.mem_ctrls.writeRowHitRate                78.88                       # Row buffer hit rate for writes
system.mem_ctrls.avgGap                    1537415.87                       # Average gap between requests
system.mem_ctrls.pageHitRate                    80.21                       # Row buffer hit rate, read and write combined
system.mem_ctrls_0.actEnergy                  1028160                       # Energy for activate commands per rank (pJ)
system.mem_ctrls_0.preEnergy                   561000                       # Energy for precharge commands per rank (pJ)
system.mem_ctrls_0.readEnergy                 5350800                       # Energy for read commands per rank (pJ)
system.mem_ctrls_0.writeEnergy                      0                       # Energy for write commands per rank (pJ)
system.mem_ctrls_0.refreshEnergy             94592160                       # Energy for refresh commands per rank (pJ)
system.mem_ctrls_0.actBackEnergy            157352490                       # Energy for active background per rank (pJ)
system.mem_ctrls_0.preBackEnergy            731064750                       # Energy for precharge background per rank (pJ)
system.mem_ctrls_0.totalEnergy              989949360                       # Total energy per rank (pJ)
system.mem_ctrls_0.averagePower            683.436002                       # Core power per rank (mW)
system.mem_ctrls_0.memoryStateTime::IDLE   1216070250                       # Time in different power states
system.mem_ctrls_0.memoryStateTime::REF      48360000                       # Time in different power states
system.mem_ctrls_0.memoryStateTime::PRE_PDN            0                       # Time in different power states
system.mem_ctrls_0.memoryStateTime::ACT     184823250                       # Time in different power states
system.mem_ctrls_0.memoryStateTime::ACT_PDN            0                       # Time in different power states
system.mem_ctrls_1.actEnergy                  1459080                       # Energy for activate commands per rank (pJ)
system.mem_ctrls_1.preEnergy                   796125                       # Energy for precharge commands per rank (pJ)
system.mem_ctrls_1.readEnergy                 7238400                       # Energy for read commands per rank (pJ)
system.mem_ctrls_1.writeEnergy                 900720                       # Energy for write commands per rank (pJ)
system.mem_ctrls_1.refreshEnergy             94592160                       # Energy for refresh commands per rank (pJ)
system.mem_ctrls_1.actBackEnergy            239093055                       # Energy for active background per rank (pJ)
system.mem_ctrls_1.preBackEnergy            659362500                       # Energy for precharge background per rank (pJ)
system.mem_ctrls_1.totalEnergy             1003442040                       # Total energy per rank (pJ)
system.mem_ctrls_1.averagePower            692.751007                       # Core power per rank (mW)
system.mem_ctrls_1.memoryStateTime::IDLE   1097837000                       # Time in different power states
system.mem_ctrls_1.memoryStateTime::REF      48360000                       # Time in different power states
system.mem_ctrls_1.memoryStateTime::PRE_PDN            0                       # Time in different power states
system.mem_ctrls_1.memoryStateTime::ACT     304775500                       # Time in different power states
system.mem_ctrls_1.memoryStateTime::ACT_PDN            0                       # Time in different power states
system.ruby_clk_domain.clock                      500                       # Clock period in ticks
system.ruby.phys_mem.bytes_read::cpu0.inst      8359688                       # Number of bytes read from this memory
system.ruby.phys_mem.bytes_read::cpu0.data      1081943                       # Number of bytes read from this memory
system.ruby.phys_mem.bytes_read::gpu.ce          4892                       # Number of bytes read from this memory
system.ruby.phys_mem.bytes_read::gpu.shader_cores.data         9344                       # Number of bytes read from this memory
system.ruby.phys_mem.bytes_read::gpu.shader_cores.inst          192                       # Number of bytes read from this memory
system.ruby.phys_mem.bytes_read::total        9456059                       # Number of bytes read from this memory
system.ruby.phys_mem.bytes_inst_read::cpu0.inst      8359688                       # Number of instructions bytes read from this memory
system.ruby.phys_mem.bytes_inst_read::gpu.shader_cores.inst          192                       # Number of instructions bytes read from this memory
system.ruby.phys_mem.bytes_inst_read::total      8359880                       # Number of instructions bytes read from this memory
system.ruby.phys_mem.bytes_written::cpu0.data       750920                       # Number of bytes written to this memory
system.ruby.phys_mem.bytes_written::gpu.ce         4892                       # Number of bytes written to this memory
system.ruby.phys_mem.bytes_written::gpu.shader_cores.data         2240                       # Number of bytes written to this memory
system.ruby.phys_mem.bytes_written::total       758052                       # Number of bytes written to this memory
system.ruby.phys_mem.num_reads::cpu0.inst      1044961                       # Number of read requests responded to by this memory
system.ruby.phys_mem.num_reads::cpu0.data       174008                       # Number of read requests responded to by this memory
system.ruby.phys_mem.num_reads::gpu.ce             45                       # Number of read requests responded to by this memory
system.ruby.phys_mem.num_reads::gpu.shader_cores.data          109                       # Number of read requests responded to by this memory
system.ruby.phys_mem.num_reads::gpu.shader_cores.inst           12                       # Number of read requests responded to by this memory
system.ruby.phys_mem.num_reads::total         1219135                       # Number of read requests responded to by this memory
system.ruby.phys_mem.num_writes::cpu0.data       118425                       # Number of write requests responded to by this memory
system.ruby.phys_mem.num_writes::gpu.ce            44                       # Number of write requests responded to by this memory
system.ruby.phys_mem.num_writes::gpu.shader_cores.data           58                       # Number of write requests responded to by this memory
system.ruby.phys_mem.num_writes::total         118527                       # Number of write requests responded to by this memory
system.ruby.phys_mem.bw_read::cpu0.inst    5753750918                       # Total read bandwidth from this memory (bytes/s)
system.ruby.phys_mem.bw_read::cpu0.data     744672592                       # Total read bandwidth from this memory (bytes/s)
system.ruby.phys_mem.bw_read::gpu.ce          3367033                       # Total read bandwidth from this memory (bytes/s)
system.ruby.phys_mem.bw_read::gpu.shader_cores.data      6431227                       # Total read bandwidth from this memory (bytes/s)
system.ruby.phys_mem.bw_read::gpu.shader_cores.inst       132148                       # Total read bandwidth from this memory (bytes/s)
system.ruby.phys_mem.bw_read::total        6508353918                       # Total read bandwidth from this memory (bytes/s)
system.ruby.phys_mem.bw_inst_read::cpu0.inst   5753750918                       # Instruction read bandwidth from this memory (bytes/s)
system.ruby.phys_mem.bw_inst_read::gpu.shader_cores.inst       132148                       # Instruction read bandwidth from this memory (bytes/s)
system.ruby.phys_mem.bw_inst_read::total   5753883066                       # Instruction read bandwidth from this memory (bytes/s)
system.ruby.phys_mem.bw_write::cpu0.data    516838265                       # Write bandwidth from this memory (bytes/s)
system.ruby.phys_mem.bw_write::gpu.ce         3367033                       # Write bandwidth from this memory (bytes/s)
system.ruby.phys_mem.bw_write::gpu.shader_cores.data      1541732                       # Write bandwidth from this memory (bytes/s)
system.ruby.phys_mem.bw_write::total        521747031                       # Write bandwidth from this memory (bytes/s)
system.ruby.phys_mem.bw_total::cpu0.inst   5753750918                       # Total bandwidth to/from this memory (bytes/s)
system.ruby.phys_mem.bw_total::cpu0.data   1261510856                       # Total bandwidth to/from this memory (bytes/s)
system.ruby.phys_mem.bw_total::gpu.ce         6734067                       # Total bandwidth to/from this memory (bytes/s)
system.ruby.phys_mem.bw_total::gpu.shader_cores.data      7972959                       # Total bandwidth to/from this memory (bytes/s)
system.ruby.phys_mem.bw_total::gpu.shader_cores.inst       132148                       # Total bandwidth to/from this memory (bytes/s)
system.ruby.phys_mem.bw_total::total       7030100949                       # Total bandwidth to/from this memory (bytes/s)
system.cpu_voltage_domain.voltage                   1                       # Voltage in Volts
system.cpu_clk_domain.clock                       500                       # Clock period in ticks
system.cpu0.apic_clk_domain.clock                8000                       # Clock period in ticks
system.cpu0.workload.num_syscalls                  44                       # Number of system calls
system.cpu0.numCycles                         2905822                       # number of cpu cycles simulated
system.cpu0.numWorkItemsStarted                     1                       # number of work items this cpu started
system.cpu0.numWorkItemsCompleted                   1                       # number of work items this cpu completed
system.cpu0.committedInsts                     773012                       # Number of instructions committed
system.cpu0.committedOps                      1511261                       # Number of ops (including micro ops) committed
system.cpu0.num_int_alu_accesses              1483575                       # Number of integer alu accesses
system.cpu0.num_fp_alu_accesses                 36551                       # Number of float alu accesses
system.cpu0.num_func_calls                      25761                       # number of times a function call or return occured
system.cpu0.num_conditional_control_insts       140988                       # number of instructions that are conditional controls
system.cpu0.num_int_insts                     1483575                       # number of integer instructions
system.cpu0.num_fp_insts                        36551                       # number of float instructions
system.cpu0.num_int_register_reads            2801575                       # number of times the integer registers were read
system.cpu0.num_int_register_writes           1180024                       # number of times the integer registers were written
system.cpu0.num_fp_register_reads               54213                       # number of times the floating registers were read
system.cpu0.num_fp_register_writes              26422                       # number of times the floating registers were written
system.cpu0.num_cc_register_reads              950904                       # number of times the CC registers were read
system.cpu0.num_cc_register_writes             478663                       # number of times the CC registers were written
system.cpu0.num_mem_refs                       292406                       # number of memory refs
system.cpu0.num_load_insts                     173982                       # Number of load instructions
system.cpu0.num_store_insts                    118424                       # Number of store instructions
system.cpu0.num_idle_cycles              56496.585961                       # Number of idle cycles
system.cpu0.num_busy_cycles              2849325.414039                       # Number of busy cycles
system.cpu0.not_idle_fraction                0.980557                       # Percentage of non-idle cycles
system.cpu0.idle_fraction                    0.019443                       # Percentage of idle cycles
system.cpu0.Branches                           187173                       # Number of branches fetched
system.cpu0.op_class::No_OpClass                 6237      0.41%      0.41% # Class of executed instruction
system.cpu0.op_class::IntAlu                  1185558     78.45%     78.86% # Class of executed instruction
system.cpu0.op_class::IntMult                    3320      0.22%     79.08% # Class of executed instruction
system.cpu0.op_class::IntDiv                      576      0.04%     79.12% # Class of executed instruction
system.cpu0.op_class::FloatAdd                  23164      1.53%     80.65% # Class of executed instruction
system.cpu0.op_class::FloatCmp                      0      0.00%     80.65% # Class of executed instruction
system.cpu0.op_class::FloatCvt                      0      0.00%     80.65% # Class of executed instruction
system.cpu0.op_class::FloatMult                     0      0.00%     80.65% # Class of executed instruction
system.cpu0.op_class::FloatDiv                      0      0.00%     80.65% # Class of executed instruction
system.cpu0.op_class::FloatSqrt                     0      0.00%     80.65% # Class of executed instruction
system.cpu0.op_class::SimdAdd                       0      0.00%     80.65% # Class of executed instruction
system.cpu0.op_class::SimdAddAcc                    0      0.00%     80.65% # Class of executed instruction
system.cpu0.op_class::SimdAlu                       0      0.00%     80.65% # Class of executed instruction
system.cpu0.op_class::SimdCmp                       0      0.00%     80.65% # Class of executed instruction
system.cpu0.op_class::SimdCvt                       0      0.00%     80.65% # Class of executed instruction
system.cpu0.op_class::SimdMisc                      0      0.00%     80.65% # Class of executed instruction
system.cpu0.op_class::SimdMult                      0      0.00%     80.65% # Class of executed instruction
system.cpu0.op_class::SimdMultAcc                   0      0.00%     80.65% # Class of executed instruction
system.cpu0.op_class::SimdShift                     0      0.00%     80.65% # Class of executed instruction
system.cpu0.op_class::SimdShiftAcc                  0      0.00%     80.65% # Class of executed instruction
system.cpu0.op_class::SimdSqrt                      0      0.00%     80.65% # Class of executed instruction
system.cpu0.op_class::SimdFloatAdd                  0      0.00%     80.65% # Class of executed instruction
system.cpu0.op_class::SimdFloatAlu                  0      0.00%     80.65% # Class of executed instruction
system.cpu0.op_class::SimdFloatCmp                  0      0.00%     80.65% # Class of executed instruction
system.cpu0.op_class::SimdFloatCvt                  0      0.00%     80.65% # Class of executed instruction
system.cpu0.op_class::SimdFloatDiv                  0      0.00%     80.65% # Class of executed instruction
system.cpu0.op_class::SimdFloatMisc                 0      0.00%     80.65% # Class of executed instruction
system.cpu0.op_class::SimdFloatMult                 0      0.00%     80.65% # Class of executed instruction
system.cpu0.op_class::SimdFloatMultAcc              0      0.00%     80.65% # Class of executed instruction
system.cpu0.op_class::SimdFloatSqrt                 0      0.00%     80.65% # Class of executed instruction
system.cpu0.op_class::MemRead                  173982     11.51%     92.16% # Class of executed instruction
system.cpu0.op_class::MemWrite                 118424      7.84%    100.00% # Class of executed instruction
system.cpu0.op_class::IprAccess                     0      0.00%    100.00% # Class of executed instruction
system.cpu0.op_class::InstPrefetch                  0      0.00%    100.00% # Class of executed instruction
system.cpu0.op_class::total                   1511261                       # Class of executed instruction
system.cpu1.apic_clk_domain.clock                8000                       # Clock period in ticks
system.cpu1.numCycles                               0                       # number of cpu cycles simulated
system.cpu1.numWorkItemsStarted                     0                       # number of work items this cpu started
system.cpu1.numWorkItemsCompleted                   0                       # number of work items this cpu completed
system.cpu1.committedInsts                          0                       # Number of instructions committed
system.cpu1.committedOps                            0                       # Number of ops (including micro ops) committed
system.cpu1.num_int_alu_accesses                    0                       # Number of integer alu accesses
system.cpu1.num_fp_alu_accesses                     0                       # Number of float alu accesses
system.cpu1.num_func_calls                          0                       # number of times a function call or return occured
system.cpu1.num_conditional_control_insts            0                       # number of instructions that are conditional controls
system.cpu1.num_int_insts                           0                       # number of integer instructions
system.cpu1.num_fp_insts                            0                       # number of float instructions
system.cpu1.num_int_register_reads                  0                       # number of times the integer registers were read
system.cpu1.num_int_register_writes                 0                       # number of times the integer registers were written
system.cpu1.num_fp_register_reads                   0                       # number of times the floating registers were read
system.cpu1.num_fp_register_writes                  0                       # number of times the floating registers were written
system.cpu1.num_mem_refs                            0                       # number of memory refs
system.cpu1.num_load_insts                          0                       # Number of load instructions
system.cpu1.num_store_insts                         0                       # Number of store instructions
system.cpu1.num_idle_cycles                         0                       # Number of idle cycles
system.cpu1.num_busy_cycles                         0                       # Number of busy cycles
system.cpu1.not_idle_fraction                       0                       # Percentage of non-idle cycles
system.cpu1.idle_fraction                           1                       # Percentage of idle cycles
system.cpu1.op_class::No_OpClass                    0                       # Class of executed instruction
system.cpu1.op_class::IntAlu                        0                       # Class of executed instruction
system.cpu1.op_class::IntMult                       0                       # Class of executed instruction
system.cpu1.op_class::IntDiv                        0                       # Class of executed instruction
system.cpu1.op_class::FloatAdd                      0                       # Class of executed instruction
system.cpu1.op_class::FloatCmp                      0                       # Class of executed instruction
system.cpu1.op_class::FloatCvt                      0                       # Class of executed instruction
system.cpu1.op_class::FloatMult                     0                       # Class of executed instruction
system.cpu1.op_class::FloatDiv                      0                       # Class of executed instruction
system.cpu1.op_class::FloatSqrt                     0                       # Class of executed instruction
system.cpu1.op_class::SimdAdd                       0                       # Class of executed instruction
system.cpu1.op_class::SimdAddAcc                    0                       # Class of executed instruction
system.cpu1.op_class::SimdAlu                       0                       # Class of executed instruction
system.cpu1.op_class::SimdCmp                       0                       # Class of executed instruction
system.cpu1.op_class::SimdCvt                       0                       # Class of executed instruction
system.cpu1.op_class::SimdMisc                      0                       # Class of executed instruction
system.cpu1.op_class::SimdMult                      0                       # Class of executed instruction
system.cpu1.op_class::SimdMultAcc                   0                       # Class of executed instruction
system.cpu1.op_class::SimdShift                     0                       # Class of executed instruction
system.cpu1.op_class::SimdShiftAcc                  0                       # Class of executed instruction
system.cpu1.op_class::SimdSqrt                      0                       # Class of executed instruction
system.cpu1.op_class::SimdFloatAdd                  0                       # Class of executed instruction
system.cpu1.op_class::SimdFloatAlu                  0                       # Class of executed instruction
system.cpu1.op_class::SimdFloatCmp                  0                       # Class of executed instruction
system.cpu1.op_class::SimdFloatCvt                  0                       # Class of executed instruction
system.cpu1.op_class::SimdFloatDiv                  0                       # Class of executed instruction
system.cpu1.op_class::SimdFloatMisc                 0                       # Class of executed instruction
system.cpu1.op_class::SimdFloatMult                 0                       # Class of executed instruction
system.cpu1.op_class::SimdFloatMultAcc              0                       # Class of executed instruction
system.cpu1.op_class::SimdFloatSqrt                 0                       # Class of executed instruction
system.cpu1.op_class::MemRead                       0                       # Class of executed instruction
system.cpu1.op_class::MemWrite                      0                       # Class of executed instruction
system.cpu1.op_class::IprAccess                     0                       # Class of executed instruction
system.cpu1.op_class::InstPrefetch                  0                       # Class of executed instruction
system.cpu1.op_class::total                         0                       # Class of executed instruction
system.cpu2.apic_clk_domain.clock                8000                       # Clock period in ticks
system.cpu2.numCycles                               0                       # number of cpu cycles simulated
system.cpu2.numWorkItemsStarted                     0                       # number of work items this cpu started
system.cpu2.numWorkItemsCompleted                   0                       # number of work items this cpu completed
system.cpu2.committedInsts                          0                       # Number of instructions committed
system.cpu2.committedOps                            0                       # Number of ops (including micro ops) committed
system.cpu2.num_int_alu_accesses                    0                       # Number of integer alu accesses
system.cpu2.num_fp_alu_accesses                     0                       # Number of float alu accesses
system.cpu2.num_func_calls                          0                       # number of times a function call or return occured
system.cpu2.num_conditional_control_insts            0                       # number of instructions that are conditional controls
system.cpu2.num_int_insts                           0                       # number of integer instructions
system.cpu2.num_fp_insts                            0                       # number of float instructions
system.cpu2.num_int_register_reads                  0                       # number of times the integer registers were read
system.cpu2.num_int_register_writes                 0                       # number of times the integer registers were written
system.cpu2.num_fp_register_reads                   0                       # number of times the floating registers were read
system.cpu2.num_fp_register_writes                  0                       # number of times the floating registers were written
system.cpu2.num_mem_refs                            0                       # number of memory refs
system.cpu2.num_load_insts                          0                       # Number of load instructions
system.cpu2.num_store_insts                         0                       # Number of store instructions
system.cpu2.num_idle_cycles                         0                       # Number of idle cycles
system.cpu2.num_busy_cycles                         0                       # Number of busy cycles
system.cpu2.not_idle_fraction                       0                       # Percentage of non-idle cycles
system.cpu2.idle_fraction                           1                       # Percentage of idle cycles
system.cpu2.op_class::No_OpClass                    0                       # Class of executed instruction
system.cpu2.op_class::IntAlu                        0                       # Class of executed instruction
system.cpu2.op_class::IntMult                       0                       # Class of executed instruction
system.cpu2.op_class::IntDiv                        0                       # Class of executed instruction
system.cpu2.op_class::FloatAdd                      0                       # Class of executed instruction
system.cpu2.op_class::FloatCmp                      0                       # Class of executed instruction
system.cpu2.op_class::FloatCvt                      0                       # Class of executed instruction
system.cpu2.op_class::FloatMult                     0                       # Class of executed instruction
system.cpu2.op_class::FloatDiv                      0                       # Class of executed instruction
system.cpu2.op_class::FloatSqrt                     0                       # Class of executed instruction
system.cpu2.op_class::SimdAdd                       0                       # Class of executed instruction
system.cpu2.op_class::SimdAddAcc                    0                       # Class of executed instruction
system.cpu2.op_class::SimdAlu                       0                       # Class of executed instruction
system.cpu2.op_class::SimdCmp                       0                       # Class of executed instruction
system.cpu2.op_class::SimdCvt                       0                       # Class of executed instruction
system.cpu2.op_class::SimdMisc                      0                       # Class of executed instruction
system.cpu2.op_class::SimdMult                      0                       # Class of executed instruction
system.cpu2.op_class::SimdMultAcc                   0                       # Class of executed instruction
system.cpu2.op_class::SimdShift                     0                       # Class of executed instruction
system.cpu2.op_class::SimdShiftAcc                  0                       # Class of executed instruction
system.cpu2.op_class::SimdSqrt                      0                       # Class of executed instruction
system.cpu2.op_class::SimdFloatAdd                  0                       # Class of executed instruction
system.cpu2.op_class::SimdFloatAlu                  0                       # Class of executed instruction
system.cpu2.op_class::SimdFloatCmp                  0                       # Class of executed instruction
system.cpu2.op_class::SimdFloatCvt                  0                       # Class of executed instruction
system.cpu2.op_class::SimdFloatDiv                  0                       # Class of executed instruction
system.cpu2.op_class::SimdFloatMisc                 0                       # Class of executed instruction
system.cpu2.op_class::SimdFloatMult                 0                       # Class of executed instruction
system.cpu2.op_class::SimdFloatMultAcc              0                       # Class of executed instruction
system.cpu2.op_class::SimdFloatSqrt                 0                       # Class of executed instruction
system.cpu2.op_class::MemRead                       0                       # Class of executed instruction
system.cpu2.op_class::MemWrite                      0                       # Class of executed instruction
system.cpu2.op_class::IprAccess                     0                       # Class of executed instruction
system.cpu2.op_class::InstPrefetch                  0                       # Class of executed instruction
system.cpu2.op_class::total                         0                       # Class of executed instruction
system.cpu3.apic_clk_domain.clock                8000                       # Clock period in ticks
system.cpu3.numCycles                               0                       # number of cpu cycles simulated
system.cpu3.numWorkItemsStarted                     0                       # number of work items this cpu started
system.cpu3.numWorkItemsCompleted                   0                       # number of work items this cpu completed
system.cpu3.committedInsts                          0                       # Number of instructions committed
system.cpu3.committedOps                            0                       # Number of ops (including micro ops) committed
system.cpu3.num_int_alu_accesses                    0                       # Number of integer alu accesses
system.cpu3.num_fp_alu_accesses                     0                       # Number of float alu accesses
system.cpu3.num_func_calls                          0                       # number of times a function call or return occured
system.cpu3.num_conditional_control_insts            0                       # number of instructions that are conditional controls
system.cpu3.num_int_insts                           0                       # number of integer instructions
system.cpu3.num_fp_insts                            0                       # number of float instructions
system.cpu3.num_int_register_reads                  0                       # number of times the integer registers were read
system.cpu3.num_int_register_writes                 0                       # number of times the integer registers were written
system.cpu3.num_fp_register_reads                   0                       # number of times the floating registers were read
system.cpu3.num_fp_register_writes                  0                       # number of times the floating registers were written
system.cpu3.num_mem_refs                            0                       # number of memory refs
system.cpu3.num_load_insts                          0                       # Number of load instructions
system.cpu3.num_store_insts                         0                       # Number of store instructions
system.cpu3.num_idle_cycles                         0                       # Number of idle cycles
system.cpu3.num_busy_cycles                         0                       # Number of busy cycles
system.cpu3.not_idle_fraction                       0                       # Percentage of non-idle cycles
system.cpu3.idle_fraction                           1                       # Percentage of idle cycles
system.cpu3.op_class::No_OpClass                    0                       # Class of executed instruction
system.cpu3.op_class::IntAlu                        0                       # Class of executed instruction
system.cpu3.op_class::IntMult                       0                       # Class of executed instruction
system.cpu3.op_class::IntDiv                        0                       # Class of executed instruction
system.cpu3.op_class::FloatAdd                      0                       # Class of executed instruction
system.cpu3.op_class::FloatCmp                      0                       # Class of executed instruction
system.cpu3.op_class::FloatCvt                      0                       # Class of executed instruction
system.cpu3.op_class::FloatMult                     0                       # Class of executed instruction
system.cpu3.op_class::FloatDiv                      0                       # Class of executed instruction
system.cpu3.op_class::FloatSqrt                     0                       # Class of executed instruction
system.cpu3.op_class::SimdAdd                       0                       # Class of executed instruction
system.cpu3.op_class::SimdAddAcc                    0                       # Class of executed instruction
system.cpu3.op_class::SimdAlu                       0                       # Class of executed instruction
system.cpu3.op_class::SimdCmp                       0                       # Class of executed instruction
system.cpu3.op_class::SimdCvt                       0                       # Class of executed instruction
system.cpu3.op_class::SimdMisc                      0                       # Class of executed instruction
system.cpu3.op_class::SimdMult                      0                       # Class of executed instruction
system.cpu3.op_class::SimdMultAcc                   0                       # Class of executed instruction
system.cpu3.op_class::SimdShift                     0                       # Class of executed instruction
system.cpu3.op_class::SimdShiftAcc                  0                       # Class of executed instruction
system.cpu3.op_class::SimdSqrt                      0                       # Class of executed instruction
system.cpu3.op_class::SimdFloatAdd                  0                       # Class of executed instruction
system.cpu3.op_class::SimdFloatAlu                  0                       # Class of executed instruction
system.cpu3.op_class::SimdFloatCmp                  0                       # Class of executed instruction
system.cpu3.op_class::SimdFloatCvt                  0                       # Class of executed instruction
system.cpu3.op_class::SimdFloatDiv                  0                       # Class of executed instruction
system.cpu3.op_class::SimdFloatMisc                 0                       # Class of executed instruction
system.cpu3.op_class::SimdFloatMult                 0                       # Class of executed instruction
system.cpu3.op_class::SimdFloatMultAcc              0                       # Class of executed instruction
system.cpu3.op_class::SimdFloatSqrt                 0                       # Class of executed instruction
system.cpu3.op_class::MemRead                       0                       # Class of executed instruction
system.cpu3.op_class::MemWrite                      0                       # Class of executed instruction
system.cpu3.op_class::IprAccess                     0                       # Class of executed instruction
system.cpu3.op_class::InstPrefetch                  0                       # Class of executed instruction
system.cpu3.op_class::total                         0                       # Class of executed instruction
system.gpu.clk_domain.voltage_domain.voltage            1                       # Voltage in Volts
system.gpu.clk_domain.clock                      1429                       # Clock period in ticks
system.gpu.dram_wrapper.clk_domain.clock          541                       # Clock period in ticks
system.gpu.icnt_wrapper.clk_domain.clock         2858                       # Clock period in ticks
system.ruby.delayHist::bucket_size                  2                       # delay histogram for all message
system.ruby.delayHist::max_bucket                  19                       # delay histogram for all message
system.ruby.delayHist::samples                     94                       # delay histogram for all message
system.ruby.delayHist::mean                  0.404255                       # delay histogram for all message
system.ruby.delayHist::stdev                 2.106412                       # delay histogram for all message
system.ruby.delayHist                    |          90     95.74%     95.74% |           0      0.00%     95.74% |           0      0.00%     95.74% |           2      2.13%     97.87% |           0      0.00%     97.87% |           1      1.06%     98.94% |           0      0.00%     98.94% |           0      0.00%     98.94% |           1      1.06%    100.00% |           0      0.00%    100.00% # delay histogram for all message
system.ruby.delayHist::total                       94                       # delay histogram for all message
system.ruby.outstanding_req_hist::bucket_size            2                      
system.ruby.outstanding_req_hist::max_bucket           19                      
system.ruby.outstanding_req_hist::samples      1337662                      
system.ruby.outstanding_req_hist::mean       1.000837                      
system.ruby.outstanding_req_hist::gmean      1.000261                      
system.ruby.outstanding_req_hist::stdev      0.077214                      
system.ruby.outstanding_req_hist         |     1337461     99.98%     99.98% |          49      0.00%     99.99% |          20      0.00%     99.99% |          28      0.00%     99.99% |          73      0.01%    100.00% |          31      0.00%    100.00% |           0      0.00%    100.00% |           0      0.00%    100.00% |           0      0.00%    100.00% |           0      0.00%    100.00%
system.ruby.outstanding_req_hist::total       1337662                      
system.ruby.latency_hist::bucket_size             128                      
system.ruby.latency_hist::max_bucket             1279                      
system.ruby.latency_hist::samples             1337662                      
system.ruby.latency_hist::mean               1.154117                      
system.ruby.latency_hist::gmean              1.014332                      
system.ruby.latency_hist::stdev              4.193589                      
system.ruby.latency_hist                 |     1337224     99.97%     99.97% |         379      0.03%    100.00% |          37      0.00%    100.00% |          11      0.00%    100.00% |           8      0.00%    100.00% |           3      0.00%    100.00% |           0      0.00%    100.00% |           0      0.00%    100.00% |           0      0.00%    100.00% |           0      0.00%    100.00%
system.ruby.latency_hist::total               1337662                      
system.ruby.hit_latency_hist::bucket_size           64                      
system.ruby.hit_latency_hist::max_bucket          639                      
system.ruby.hit_latency_hist::samples         1336807                      
system.ruby.hit_latency_hist::mean           1.071618                      
system.ruby.hit_latency_hist::gmean          1.011246                      
system.ruby.hit_latency_hist::stdev          1.754940                      
system.ruby.hit_latency_hist             |     1336667     99.99%     99.99% |          62      0.00%     99.99% |          63      0.00%    100.00% |           4      0.00%    100.00% |           7      0.00%    100.00% |           4      0.00%    100.00% |           0      0.00%    100.00% |           0      0.00%    100.00% |           0      0.00%    100.00% |           0      0.00%    100.00%
system.ruby.hit_latency_hist::total           1336807                      
system.ruby.miss_latency_hist::bucket_size          128                      
system.ruby.miss_latency_hist::max_bucket         1279                      
system.ruby.miss_latency_hist::samples            855                      
system.ruby.miss_latency_hist::mean        130.142690                      
system.ruby.miss_latency_hist::gmean       118.847083                      
system.ruby.miss_latency_hist::stdev        77.826254                      
system.ruby.miss_latency_hist            |         495     57.89%     57.89% |         312     36.49%     94.39% |          26      3.04%     97.43% |          11      1.29%     98.71% |           8      0.94%     99.65% |           3      0.35%    100.00% |           0      0.00%    100.00% |           0      0.00%    100.00% |           0      0.00%    100.00% |           0      0.00%    100.00%
system.ruby.miss_latency_hist::total              855                      
system.ruby.L1Cache.incomplete_times                3                      
system.ruby.GPUL2Cache.incomplete_times             2                      
system.ruby.Directory.incomplete_times             31                      
system.gpu.shader_mmu.numPagefaults                 0                       # Number of Pagefaults
system.gpu.shader_mmu.numPagewalks                 11                       # Number of Pagewalks
system.gpu.shader_mmu.totalRequests                11                       # Total number of requests
system.gpu.shader_mmu.l2hits                        0                       # Hits in the shared L2
system.gpu.shader_mmu.prefetchHits                  0                       # Number of prefetch hits
system.gpu.shader_mmu.numPrefetches                 0                       # Number of prefetchs
system.gpu.shader_mmu.prefetchFaults                0                       # Number of faults caused by prefetches
system.gpu.shader_mmu.pagefaultLatency::samples            0                       # Latency to complete the pagefault
system.gpu.shader_mmu.pagefaultLatency::mean          nan                       # Latency to complete the pagefault
system.gpu.shader_mmu.pagefaultLatency::gmean          nan                       # Latency to complete the pagefault
system.gpu.shader_mmu.pagefaultLatency::stdev          nan                       # Latency to complete the pagefault
system.gpu.shader_mmu.pagefaultLatency::0            0                       # Latency to complete the pagefault
system.gpu.shader_mmu.pagefaultLatency::1            0                       # Latency to complete the pagefault
system.gpu.shader_mmu.pagefaultLatency::2            0                       # Latency to complete the pagefault
system.gpu.shader_mmu.pagefaultLatency::3            0                       # Latency to complete the pagefault
system.gpu.shader_mmu.pagefaultLatency::4            0                       # Latency to complete the pagefault
system.gpu.shader_mmu.pagefaultLatency::5            0                       # Latency to complete the pagefault
system.gpu.shader_mmu.pagefaultLatency::6            0                       # Latency to complete the pagefault
system.gpu.shader_mmu.pagefaultLatency::7            0                       # Latency to complete the pagefault
system.gpu.shader_mmu.pagefaultLatency::8            0                       # Latency to complete the pagefault
system.gpu.shader_mmu.pagefaultLatency::9            0                       # Latency to complete the pagefault
system.gpu.shader_mmu.pagefaultLatency::10            0                       # Latency to complete the pagefault
system.gpu.shader_mmu.pagefaultLatency::11            0                       # Latency to complete the pagefault
system.gpu.shader_mmu.pagefaultLatency::12            0                       # Latency to complete the pagefault
system.gpu.shader_mmu.pagefaultLatency::13            0                       # Latency to complete the pagefault
system.gpu.shader_mmu.pagefaultLatency::14            0                       # Latency to complete the pagefault
system.gpu.shader_mmu.pagefaultLatency::15            0                       # Latency to complete the pagefault
system.gpu.shader_mmu.pagefaultLatency::16            0                       # Latency to complete the pagefault
system.gpu.shader_mmu.pagefaultLatency::17            0                       # Latency to complete the pagefault
system.gpu.shader_mmu.pagefaultLatency::18            0                       # Latency to complete the pagefault
system.gpu.shader_mmu.pagefaultLatency::19            0                       # Latency to complete the pagefault
system.gpu.shader_mmu.pagefaultLatency::20            0                       # Latency to complete the pagefault
system.gpu.shader_mmu.pagefaultLatency::21            0                       # Latency to complete the pagefault
system.gpu.shader_mmu.pagefaultLatency::22            0                       # Latency to complete the pagefault
system.gpu.shader_mmu.pagefaultLatency::23            0                       # Latency to complete the pagefault
system.gpu.shader_mmu.pagefaultLatency::24            0                       # Latency to complete the pagefault
system.gpu.shader_mmu.pagefaultLatency::25            0                       # Latency to complete the pagefault
system.gpu.shader_mmu.pagefaultLatency::26            0                       # Latency to complete the pagefault
system.gpu.shader_mmu.pagefaultLatency::27            0                       # Latency to complete the pagefault
system.gpu.shader_mmu.pagefaultLatency::28            0                       # Latency to complete the pagefault
system.gpu.shader_mmu.pagefaultLatency::29            0                       # Latency to complete the pagefault
system.gpu.shader_mmu.pagefaultLatency::30            0                       # Latency to complete the pagefault
system.gpu.shader_mmu.pagefaultLatency::31            0                       # Latency to complete the pagefault
system.gpu.shader_mmu.pagefaultLatency::total            0                       # Latency to complete the pagefault
system.gpu.shader_mmu.concurrentWalks::samples           11                       # Number of outstanding walks
system.gpu.shader_mmu.concurrentWalks::mean            0                       # Number of outstanding walks
system.gpu.shader_mmu.concurrentWalks::gmean            0                       # Number of outstanding walks
system.gpu.shader_mmu.concurrentWalks::stdev            0                       # Number of outstanding walks
system.gpu.shader_mmu.concurrentWalks::0           11    100.00%    100.00% # Number of outstanding walks
system.gpu.shader_mmu.concurrentWalks::1            0      0.00%    100.00% # Number of outstanding walks
system.gpu.shader_mmu.concurrentWalks::2            0      0.00%    100.00% # Number of outstanding walks
system.gpu.shader_mmu.concurrentWalks::3            0      0.00%    100.00% # Number of outstanding walks
system.gpu.shader_mmu.concurrentWalks::4            0      0.00%    100.00% # Number of outstanding walks
system.gpu.shader_mmu.concurrentWalks::5            0      0.00%    100.00% # Number of outstanding walks
system.gpu.shader_mmu.concurrentWalks::6            0      0.00%    100.00% # Number of outstanding walks
system.gpu.shader_mmu.concurrentWalks::7            0      0.00%    100.00% # Number of outstanding walks
system.gpu.shader_mmu.concurrentWalks::8            0      0.00%    100.00% # Number of outstanding walks
system.gpu.shader_mmu.concurrentWalks::9            0      0.00%    100.00% # Number of outstanding walks
system.gpu.shader_mmu.concurrentWalks::10            0      0.00%    100.00% # Number of outstanding walks
system.gpu.shader_mmu.concurrentWalks::11            0      0.00%    100.00% # Number of outstanding walks
system.gpu.shader_mmu.concurrentWalks::12            0      0.00%    100.00% # Number of outstanding walks
system.gpu.shader_mmu.concurrentWalks::13            0      0.00%    100.00% # Number of outstanding walks
system.gpu.shader_mmu.concurrentWalks::14            0      0.00%    100.00% # Number of outstanding walks
system.gpu.shader_mmu.concurrentWalks::15            0      0.00%    100.00% # Number of outstanding walks
system.gpu.shader_mmu.concurrentWalks::total           11                       # Number of outstanding walks
system.gpu.shader_mmu.pagewalkLatency::samples           11                       # Latency to complete the pagewalk
system.gpu.shader_mmu.pagewalkLatency::mean            0                       # Latency to complete the pagewalk
system.gpu.shader_mmu.pagewalkLatency::gmean            0                       # Latency to complete the pagewalk
system.gpu.shader_mmu.pagewalkLatency::stdev            0                       # Latency to complete the pagewalk
system.gpu.shader_mmu.pagewalkLatency::0           11    100.00%    100.00% # Latency to complete the pagewalk
system.gpu.shader_mmu.pagewalkLatency::1            0      0.00%    100.00% # Latency to complete the pagewalk
system.gpu.shader_mmu.pagewalkLatency::2            0      0.00%    100.00% # Latency to complete the pagewalk
system.gpu.shader_mmu.pagewalkLatency::3            0      0.00%    100.00% # Latency to complete the pagewalk
system.gpu.shader_mmu.pagewalkLatency::4            0      0.00%    100.00% # Latency to complete the pagewalk
system.gpu.shader_mmu.pagewalkLatency::5            0      0.00%    100.00% # Latency to complete the pagewalk
system.gpu.shader_mmu.pagewalkLatency::6            0      0.00%    100.00% # Latency to complete the pagewalk
system.gpu.shader_mmu.pagewalkLatency::7            0      0.00%    100.00% # Latency to complete the pagewalk
system.gpu.shader_mmu.pagewalkLatency::8            0      0.00%    100.00% # Latency to complete the pagewalk
system.gpu.shader_mmu.pagewalkLatency::9            0      0.00%    100.00% # Latency to complete the pagewalk
system.gpu.shader_mmu.pagewalkLatency::10            0      0.00%    100.00% # Latency to complete the pagewalk
system.gpu.shader_mmu.pagewalkLatency::11            0      0.00%    100.00% # Latency to complete the pagewalk
system.gpu.shader_mmu.pagewalkLatency::12            0      0.00%    100.00% # Latency to complete the pagewalk
system.gpu.shader_mmu.pagewalkLatency::13            0      0.00%    100.00% # Latency to complete the pagewalk
system.gpu.shader_mmu.pagewalkLatency::14            0      0.00%    100.00% # Latency to complete the pagewalk
system.gpu.shader_mmu.pagewalkLatency::15            0      0.00%    100.00% # Latency to complete the pagewalk
system.gpu.shader_mmu.pagewalkLatency::16            0      0.00%    100.00% # Latency to complete the pagewalk
system.gpu.shader_mmu.pagewalkLatency::17            0      0.00%    100.00% # Latency to complete the pagewalk
system.gpu.shader_mmu.pagewalkLatency::18            0      0.00%    100.00% # Latency to complete the pagewalk
system.gpu.shader_mmu.pagewalkLatency::19            0      0.00%    100.00% # Latency to complete the pagewalk
system.gpu.shader_mmu.pagewalkLatency::20            0      0.00%    100.00% # Latency to complete the pagewalk
system.gpu.shader_mmu.pagewalkLatency::21            0      0.00%    100.00% # Latency to complete the pagewalk
system.gpu.shader_mmu.pagewalkLatency::22            0      0.00%    100.00% # Latency to complete the pagewalk
system.gpu.shader_mmu.pagewalkLatency::23            0      0.00%    100.00% # Latency to complete the pagewalk
system.gpu.shader_mmu.pagewalkLatency::24            0      0.00%    100.00% # Latency to complete the pagewalk
system.gpu.shader_mmu.pagewalkLatency::25            0      0.00%    100.00% # Latency to complete the pagewalk
system.gpu.shader_mmu.pagewalkLatency::26            0      0.00%    100.00% # Latency to complete the pagewalk
system.gpu.shader_mmu.pagewalkLatency::27            0      0.00%    100.00% # Latency to complete the pagewalk
system.gpu.shader_mmu.pagewalkLatency::28            0      0.00%    100.00% # Latency to complete the pagewalk
system.gpu.shader_mmu.pagewalkLatency::29            0      0.00%    100.00% # Latency to complete the pagewalk
system.gpu.shader_mmu.pagewalkLatency::30            0      0.00%    100.00% # Latency to complete the pagewalk
system.gpu.shader_mmu.pagewalkLatency::31            0      0.00%    100.00% # Latency to complete the pagewalk
system.gpu.shader_mmu.pagewalkLatency::total           11                       # Latency to complete the pagewalk
[...]
system.ruby.L1Cache_Controller.Trigger_L2_to_L1D::total          715                      
system.ruby.L1Cache_Controller.Trigger_L2_to_L1I |        4425    100.00%    100.00% |           0      0.00%    100.00% |           0      0.00%    100.00% |           0      0.00%    100.00% |           0      0.00%    100.00%
system.ruby.L1Cache_Controller.Trigger_L2_to_L1I::total         4425                      
system.ruby.L1Cache_Controller.Complete_L2_to_L1 |        5140    100.00%    100.00% |           0      0.00%    100.00% |           0      0.00%    100.00% |           0      0.00%    100.00% |           0      0.00%    100.00%
system.ruby.L1Cache_Controller.Complete_L2_to_L1::total         5140                      
system.ruby.L1Cache_Controller.Other_GETX |          55      5.62%      5.62% |         231     23.60%     29.21% |         231     23.60%     52.81% |         231     23.60%     76.40% |         231     23.60%    100.00%
system.ruby.L1Cache_Controller.Other_GETX::total          979                      
system.ruby.L1Cache_Controller.Other_GETS |          79      2.66%      2.66% |         722     24.33%     27.00% |         722     24.33%     51.33% |         722     24.33%     75.67% |         722     24.33%    100.00%
system.ruby.L1Cache_Controller.Other_GETS::total         2967                      
system.ruby.L1Cache_Controller.Ack       |        4086    100.00%    100.00% |           0      0.00%    100.00% |           0      0.00%    100.00% |           0      0.00%    100.00% |           0      0.00%    100.00%
system.ruby.L1Cache_Controller.Ack::total         4086                      
system.ruby.L1Cache_Controller.Data      |           2    100.00%    100.00% |           0      0.00%    100.00% |           0      0.00%    100.00% |           0      0.00%    100.00% |           0      0.00%    100.00%
system.ruby.L1Cache_Controller.Data::total            2                      
system.ruby.L1Cache_Controller.Shared_Data |           2    100.00%    100.00% |           0      0.00%    100.00% |           0      0.00%    100.00% |           0      0.00%    100.00% |           0      0.00%    100.00%
system.ruby.L1Cache_Controller.Shared_Data::total            2                      
system.ruby.L1Cache_Controller.Exclusive_Data |         815    100.00%    100.00% |           0      0.00%    100.00% |           0      0.00%    100.00% |           0      0.00%    100.00% |           0      0.00%    100.00%
system.ruby.L1Cache_Controller.Exclusive_Data::total          815                      
system.ruby.L1Cache_Controller.All_acks  |           2    100.00%    100.00% |           0      0.00%    100.00% |           0      0.00%    100.00% |           0      0.00%    100.00% |           0      0.00%    100.00%
system.ruby.L1Cache_Controller.All_acks::total            2                      
system.ruby.L1Cache_Controller.All_acks_no_sharers |         817    100.00%    100.00% |           0      0.00%    100.00% |           0      0.00%    100.00% |           0      0.00%    100.00% |           0      0.00%    100.00%
system.ruby.L1Cache_Controller.All_acks_no_sharers::total          817                      
system.ruby.L1Cache_Controller.I.Load    |         135    100.00%    100.00% |           0      0.00%    100.00% |           0      0.00%    100.00% |           0      0.00%    100.00% |           0      0.00%    100.00%
system.ruby.L1Cache_Controller.I.Load::total          135                      
system.ruby.L1Cache_Controller.I.Ifetch  |         508    100.00%    100.00% |           0      0.00%    100.00% |           0      0.00%    100.00% |           0      0.00%    100.00% |           0      0.00%    100.00%
system.ruby.L1Cache_Controller.I.Ifetch::total          508                      
system.ruby.L1Cache_Controller.I.Store   |         174    100.00%    100.00% |           0      0.00%    100.00% |           0      0.00%    100.00% |           0      0.00%    100.00% |           0      0.00%    100.00%
system.ruby.L1Cache_Controller.I.Store::total          174                      
system.ruby.L1Cache_Controller.I.Other_GETX |          42      4.35%      4.35% |         231     23.91%     28.26% |         231     23.91%     52.17% |         231     23.91%     76.09% |         231     23.91%    100.00%
system.ruby.L1Cache_Controller.I.Other_GETX::total          966                      
system.ruby.L1Cache_Controller.I.Other_GETS |          48      1.63%      1.63% |         722     24.59%     26.23% |         722     24.59%     50.82% |         722     24.59%     75.41% |         722     24.59%    100.00%
system.ruby.L1Cache_Controller.I.Other_GETS::total         2936                      
system.ruby.L1Cache_Controller.S.Load    |           5    100.00%    100.00% |           0      0.00%    100.00% |           0      0.00%    100.00% |           0      0.00%    100.00% |           0      0.00%    100.00%
system.ruby.L1Cache_Controller.S.Load::total            5                      
system.ruby.L1Cache_Controller.S.Store   |           2    100.00%    100.00% |           0      0.00%    100.00% |           0      0.00%    100.00% |           0      0.00%    100.00% |           0      0.00%    100.00%
system.ruby.L1Cache_Controller.S.Store::total            2                      
system.ruby.L1Cache_Controller.O.Load    |           2    100.00%    100.00% |           0      0.00%    100.00% |           0      0.00%    100.00% |           0      0.00%    100.00% |           0      0.00%    100.00%
system.ruby.L1Cache_Controller.O.Load::total            2                      
system.ruby.L1Cache_Controller.O.Other_GETX |           1    100.00%    100.00% |           0      0.00%    100.00% |           0      0.00%    100.00% |           0      0.00%    100.00% |           0      0.00%    100.00%
system.ruby.L1Cache_Controller.O.Other_GETX::total            1                      
system.ruby.L1Cache_Controller.O.Other_GETS |           1    100.00%    100.00% |           0      0.00%    100.00% |           0      0.00%    100.00% |           0      0.00%    100.00% |           0      0.00%    100.00%
system.ruby.L1Cache_Controller.O.Other_GETS::total            1                      
system.ruby.L1Cache_Controller.M.Load    |       17763    100.00%    100.00% |           0      0.00%    100.00% |           0      0.00%    100.00% |           0      0.00%    100.00% |           0      0.00%    100.00%
system.ruby.L1Cache_Controller.M.Load::total        17763                      
system.ruby.L1Cache_Controller.M.Ifetch  |     1040028    100.00%    100.00% |           0      0.00%    100.00% |           0      0.00%    100.00% |           0      0.00%    100.00% |           0      0.00%    100.00%
system.ruby.L1Cache_Controller.M.Ifetch::total      1040028                      
system.ruby.L1Cache_Controller.M.Store   |          39    100.00%    100.00% |           0      0.00%    100.00% |           0      0.00%    100.00% |           0      0.00%    100.00% |           0      0.00%    100.00%
system.ruby.L1Cache_Controller.M.Store::total           39                      
system.ruby.L1Cache_Controller.M.L1_to_L2 |        5088    100.00%    100.00% |           0      0.00%    100.00% |           0      0.00%    100.00% |           0      0.00%    100.00% |           0      0.00%    100.00%
system.ruby.L1Cache_Controller.M.L1_to_L2::total         5088                      
system.ruby.L1Cache_Controller.M.Trigger_L2_to_L1D |         373    100.00%    100.00% |           0      0.00%    100.00% |           0      0.00%    100.00% |           0      0.00%    100.00% |           0      0.00%    100.00%
system.ruby.L1Cache_Controller.M.Trigger_L2_to_L1D::total          373                      
system.ruby.L1Cache_Controller.M.Trigger_L2_to_L1I |        4425    100.00%    100.00% |           0      0.00%    100.00% |           0      0.00%    100.00% |           0      0.00%    100.00% |           0      0.00%    100.00%
system.ruby.L1Cache_Controller.M.Trigger_L2_to_L1I::total         4425                      
system.ruby.L1Cache_Controller.M.Other_GETX |           2    100.00%    100.00% |           0      0.00%    100.00% |           0      0.00%    100.00% |           0      0.00%    100.00% |           0      0.00%    100.00%
system.ruby.L1Cache_Controller.M.Other_GETX::total            2                      
system.ruby.L1Cache_Controller.M.Other_GETS |           2    100.00%    100.00% |           0      0.00%    100.00% |           0      0.00%    100.00% |           0      0.00%    100.00% |           0      0.00%    100.00%
system.ruby.L1Cache_Controller.M.Other_GETS::total            2                      
system.ruby.L1Cache_Controller.MM.Load   |      148609    100.00%    100.00% |           0      0.00%    100.00% |           0      0.00%    100.00% |           0      0.00%    100.00% |           0      0.00%    100.00%
system.ruby.L1Cache_Controller.MM.Load::total       148609                      
system.ruby.L1Cache_Controller.MM.Store  |      124988    100.00%    100.00% |           0      0.00%    100.00% |           0      0.00%    100.00% |           0      0.00%    100.00% |           0      0.00%    100.00%
system.ruby.L1Cache_Controller.MM.Store::total       124988                      
system.ruby.L1Cache_Controller.MM.L1_to_L2 |         379    100.00%    100.00% |           0      0.00%    100.00% |           0      0.00%    100.00% |           0      0.00%    100.00% |           0      0.00%    100.00%
system.ruby.L1Cache_Controller.MM.L1_to_L2::total          379                      
system.ruby.L1Cache_Controller.MM.Trigger_L2_to_L1D |         342    100.00%    100.00% |           0      0.00%    100.00% |           0      0.00%    100.00% |           0      0.00%    100.00% |           0      0.00%    100.00%
system.ruby.L1Cache_Controller.MM.Trigger_L2_to_L1D::total          342                      
system.ruby.L1Cache_Controller.MM.Other_GETX |          10    100.00%    100.00% |           0      0.00%    100.00% |           0      0.00%    100.00% |           0      0.00%    100.00% |           0      0.00%    100.00%
system.ruby.L1Cache_Controller.MM.Other_GETX::total           10                      
system.ruby.L1Cache_Controller.MM.Other_GETS |          28    100.00%    100.00% |           0      0.00%    100.00% |           0      0.00%    100.00% |           0      0.00%    100.00% |           0      0.00%    100.00%
system.ruby.L1Cache_Controller.MM.Other_GETS::total           28                      
system.ruby.L1Cache_Controller.MR.Load   |         373    100.00%    100.00% |           0      0.00%    100.00% |           0      0.00%    100.00% |           0      0.00%    100.00% |           0      0.00%    100.00%
system.ruby.L1Cache_Controller.MR.Load::total          373                      
system.ruby.L1Cache_Controller.MR.Ifetch |        4425    100.00%    100.00% |           0      0.00%    100.00% |           0      0.00%    100.00% |           0      0.00%    100.00% |           0      0.00%    100.00%
system.ruby.L1Cache_Controller.MR.Ifetch::total         4425                      
system.ruby.L1Cache_Controller.MMR.Load  |         341    100.00%    100.00% |           0      0.00%    100.00% |           0      0.00%    100.00% |           0      0.00%    100.00% |           0      0.00%    100.00%
system.ruby.L1Cache_Controller.MMR.Load::total          341                      
system.ruby.L1Cache_Controller.MMR.Store |           1    100.00%    100.00% |           0      0.00%    100.00% |           0      0.00%    100.00% |           0      0.00%    100.00% |           0      0.00%    100.00%
system.ruby.L1Cache_Controller.MMR.Store::total            1                      
system.ruby.L1Cache_Controller.IM.Ack    |         868    100.00%    100.00% |           0      0.00%    100.00% |           0      0.00%    100.00% |           0      0.00%    100.00% |           0      0.00%    100.00%
system.ruby.L1Cache_Controller.IM.Ack::total          868                      
system.ruby.L1Cache_Controller.IM.Exclusive_Data |         174    100.00%    100.00% |           0      0.00%    100.00% |           0      0.00%    100.00% |           0      0.00%    100.00% |           0      0.00%    100.00%
system.ruby.L1Cache_Controller.IM.Exclusive_Data::total          174                      
system.ruby.L1Cache_Controller.SM.Ack    |           8    100.00%    100.00% |           0      0.00%    100.00% |           0      0.00%    100.00% |           0      0.00%    100.00% |           0      0.00%    100.00%
system.ruby.L1Cache_Controller.SM.Ack::total            8                      
system.ruby.L1Cache_Controller.SM.Data   |           2    100.00%    100.00% |           0      0.00%    100.00% |           0      0.00%    100.00% |           0      0.00%    100.00% |           0      0.00%    100.00%
system.ruby.L1Cache_Controller.SM.Data::total            2                      
system.ruby.L1Cache_Controller.ISM.All_acks_no_sharers |           2    100.00%    100.00% |           0      0.00%    100.00% |           0      0.00%    100.00% |           0      0.00%    100.00% |           0      0.00%    100.00%
system.ruby.L1Cache_Controller.ISM.All_acks_no_sharers::total            2                      
system.ruby.L1Cache_Controller.M_W.Load  |           1    100.00%    100.00% |           0      0.00%    100.00% |           0      0.00%    100.00% |           0      0.00%    100.00% |           0      0.00%    100.00%
system.ruby.L1Cache_Controller.M_W.Load::total            1                      
system.ruby.L1Cache_Controller.M_W.Ack   |          12    100.00%    100.00% |           0      0.00%    100.00% |           0      0.00%    100.00% |           0      0.00%    100.00% |           0      0.00%    100.00%
system.ruby.L1Cache_Controller.M_W.Ack::total           12                      
system.ruby.L1Cache_Controller.M_W.All_acks_no_sharers |         641    100.00%    100.00% |           0      0.00%    100.00% |           0      0.00%    100.00% |           0      0.00%    100.00% |           0      0.00%    100.00%
system.ruby.L1Cache_Controller.M_W.All_acks_no_sharers::total          641                      
system.ruby.L1Cache_Controller.MM_W.All_acks_no_sharers |         174    100.00%    100.00% |           0      0.00%    100.00% |           0      0.00%    100.00% |           0      0.00%    100.00% |           0      0.00%    100.00%
system.ruby.L1Cache_Controller.MM_W.All_acks_no_sharers::total          174                      
system.ruby.L1Cache_Controller.IS.Ack    |        3198    100.00%    100.00% |           0      0.00%    100.00% |           0      0.00%    100.00% |           0      0.00%    100.00% |           0      0.00%    100.00%
system.ruby.L1Cache_Controller.IS.Ack::total         3198                      
system.ruby.L1Cache_Controller.IS.Shared_Data |           2    100.00%    100.00% |           0      0.00%    100.00% |           0      0.00%    100.00% |           0      0.00%    100.00% |           0      0.00%    100.00%
system.ruby.L1Cache_Controller.IS.Shared_Data::total            2                      
system.ruby.L1Cache_Controller.IS.Exclusive_Data |         641    100.00%    100.00% |           0      0.00%    100.00% |           0      0.00%    100.00% |           0      0.00%    100.00% |           0      0.00%    100.00%
system.ruby.L1Cache_Controller.IS.Exclusive_Data::total          641                      
system.ruby.L1Cache_Controller.SS.All_acks |           2    100.00%    100.00% |           0      0.00%    100.00% |           0      0.00%    100.00% |           0      0.00%    100.00% |           0      0.00%    100.00%
system.ruby.L1Cache_Controller.SS.All_acks::total            2                      
system.ruby.L1Cache_Controller.MT.Complete_L2_to_L1 |        4798    100.00%    100.00% |           0      0.00%    100.00% |           0      0.00%    100.00% |           0      0.00%    100.00% |           0      0.00%    100.00%
system.ruby.L1Cache_Controller.MT.Complete_L2_to_L1::total         4798                      
system.ruby.L1Cache_Controller.MMT.Complete_L2_to_L1 |         342    100.00%    100.00% |           0      0.00%    100.00% |           0      0.00%    100.00% |           0      0.00%    100.00% |           0      0.00%    100.00%
system.ruby.L1Cache_Controller.MMT.Complete_L2_to_L1::total          342                      
system.ruby.GPUL1Cache_Controller.Load            109      0.00%      0.00%
system.ruby.GPUL1Cache_Controller.Ifetch           12      0.00%      0.00%
system.ruby.GPUL1Cache_Controller.Store            58      0.00%      0.00%
system.ruby.GPUL1Cache_Controller.Data             36      0.00%      0.00%
system.ruby.GPUL1Cache_Controller.Write_Ack           58      0.00%      0.00%
system.ruby.GPUL1Cache_Controller.I.Load           24      0.00%      0.00%
system.ruby.GPUL1Cache_Controller.I.Ifetch           12      0.00%      0.00%
system.ruby.GPUL1Cache_Controller.I.Store           36      0.00%      0.00%
system.ruby.GPUL1Cache_Controller.V.Load           85      0.00%      0.00%
system.ruby.GPUL1Cache_Controller.V.Store           22      0.00%      0.00%
system.ruby.GPUL1Cache_Controller.IA.Write_Ack           58      0.00%      0.00%
system.ruby.GPUL1Cache_Controller.IV.Data           36      0.00%      0.00%
system.ruby.GPUL2Cache_Controller.Get              36      0.00%      0.00%
system.ruby.GPUL2Cache_Controller.Store            58      0.00%      0.00%
system.ruby.GPUL2Cache_Controller.Other_GETX          220      0.00%      0.00%
system.ruby.GPUL2Cache_Controller.Other_GETS          688      0.00%      0.00%
system.ruby.GPUL2Cache_Controller.Ack             220      0.00%      0.00%
system.ruby.GPUL2Cache_Controller.Shared_Data            1      0.00%      0.00%
system.ruby.GPUL2Cache_Controller.Exclusive_Data           44      0.00%      0.00%
system.ruby.GPUL2Cache_Controller.All_acks            1      0.00%      0.00%
system.ruby.GPUL2Cache_Controller.All_acks_no_sharers           44      0.00%      0.00%
system.ruby.GPUL2Cache_Controller.I.Get            34      0.00%      0.00%
system.ruby.GPUL2Cache_Controller.I.Store           11      0.00%      0.00%
system.ruby.GPUL2Cache_Controller.I.Other_GETX          207      0.00%      0.00%
system.ruby.GPUL2Cache_Controller.I.Other_GETS          674      0.00%      0.00%
system.ruby.GPUL2Cache_Controller.O.Other_GETX            2      0.00%      0.00%
system.ruby.GPUL2Cache_Controller.M.Store           10      0.00%      0.00%
system.ruby.GPUL2Cache_Controller.M.Other_GETX           10      0.00%      0.00%
system.ruby.GPUL2Cache_Controller.M.Other_GETS            2      0.00%      0.00%
system.ruby.GPUL2Cache_Controller.MM.Get            2      0.00%      0.00%
system.ruby.GPUL2Cache_Controller.MM.Store           37      0.00%      0.00%
system.ruby.GPUL2Cache_Controller.MM.Other_GETX            1      0.00%      0.00%
system.ruby.GPUL2Cache_Controller.MM.Other_GETS           12      0.00%      0.00%
system.ruby.GPUL2Cache_Controller.IM.Ack           53      0.00%      0.00%
system.ruby.GPUL2Cache_Controller.IM.Exclusive_Data           11      0.00%      0.00%
system.ruby.GPUL2Cache_Controller.IS.Ack          167      0.00%      0.00%
system.ruby.GPUL2Cache_Controller.IS.Shared_Data            1      0.00%      0.00%
system.ruby.GPUL2Cache_Controller.IS.Exclusive_Data           33      0.00%      0.00%
system.ruby.GPUL2Cache_Controller.SS.All_acks            1      0.00%      0.00%
system.ruby.GPUL2Cache_Controller.M_W.All_acks_no_sharers           33      0.00%      0.00%
system.ruby.GPUL2Cache_Controller.MM_W.All_acks_no_sharers           11      0.00%      0.00%

---------- End Simulation Statistics   ----------
