
---------- Begin Simulation Statistics ----------
sim_seconds                                  0.000065                       # Number of seconds simulated
sim_ticks                                    64927500                       # Number of ticks simulated
final_tick                                   64927500                       # Number of ticks from beginning of simulation (restored from checkpoints and never reset)
sim_freq                                 1000000000000                       # Frequency of simulated ticks
host_inst_rate                                  64281                       # Simulator instruction rate (inst/s)
host_op_rate                                   128229                       # Simulator op (including micro ops) rate (op/s)
host_tick_rate                              186755822                       # Simulator tick rate (ticks/s)
host_mem_usage                                4533368                       # Number of bytes of host memory used
host_seconds                                     0.35                       # Real time elapsed on the host
sim_insts                                       22347                       # Number of instructions simulated
sim_ops                                         44579                       # Number of ops (including micro ops) simulated
system.voltage_domain.voltage                       1                       # Voltage in Volts
system.clk_domain.clock                          1000                       # Clock period in ticks
system.mem_ctrls.bytes_read::ruby.dir_cntrl0        57344                       # Number of bytes read from this memory
system.mem_ctrls.bytes_read::total              57344                       # Number of bytes read from this memory
system.mem_ctrls.num_reads::ruby.dir_cntrl0          448                       # Number of read requests responded to by this memory
system.mem_ctrls.num_reads::total                 448                       # Number of read requests responded to by this memory
system.mem_ctrls.bw_read::ruby.dir_cntrl0    883200493                       # Total read bandwidth from this memory (bytes/s)
system.mem_ctrls.bw_read::total             883200493                       # Total read bandwidth from this memory (bytes/s)
system.mem_ctrls.bw_total::ruby.dir_cntrl0    883200493                       # Total bandwidth to/from this memory (bytes/s)
system.mem_ctrls.bw_total::total            883200493                       # Total bandwidth to/from this memory (bytes/s)
system.mem_ctrls.readReqs                         448                       # Number of read requests accepted
system.mem_ctrls.writeReqs                          0                       # Number of write requests accepted
system.mem_ctrls.readBursts                       896                       # Number of DRAM read bursts, including those serviced by the write queue
system.mem_ctrls.writeBursts                        0                       # Number of DRAM write bursts, including those merged in the write queue
system.mem_ctrls.bytesReadDRAM                  57344                       # Total number of bytes read from DRAM
system.mem_ctrls.bytesReadWrQ                       0                       # Total number of bytes read from write queue
system.mem_ctrls.bytesWritten                       0                       # Total number of bytes written to DRAM
system.mem_ctrls.bytesReadSys                   57344                       # Total read bytes from the system interface side
system.mem_ctrls.bytesWrittenSys                    0                       # Total written bytes from the system interface side
system.mem_ctrls.servicedByWrQ                      0                       # Number of DRAM read bursts serviced by the write queue
system.mem_ctrls.mergedWrBursts                     0                       # Number of DRAM write bursts merged with an existing one
system.mem_ctrls.neitherReadNorWriteReqs            0                       # Number of requests that are neither read nor write
system.mem_ctrls.perBankRdBursts::0               144                       # Per bank write bursts
system.mem_ctrls.perBankRdBursts::1                78                       # Per bank write bursts
system.mem_ctrls.perBankRdBursts::2                40                       # Per bank write bursts
system.mem_ctrls.perBankRdBursts::3                40                       # Per bank write bursts
system.mem_ctrls.perBankRdBursts::4                56                       # Per bank write bursts
system.mem_ctrls.perBankRdBursts::5                50                       # Per bank write bursts
system.mem_ctrls.perBankRdBursts::6                48                       # Per bank write bursts
system.mem_ctrls.perBankRdBursts::7                52                       # Per bank write bursts
system.mem_ctrls.perBankRdBursts::8                24                       # Per bank write bursts
system.mem_ctrls.perBankRdBursts::9                18                       # Per bank write bursts
system.mem_ctrls.perBankRdBursts::10               30                       # Per bank write bursts
system.mem_ctrls.perBankRdBursts::11               70                       # Per bank write bursts
system.mem_ctrls.perBankRdBursts::12               48                       # Per bank write bursts
system.mem_ctrls.perBankRdBursts::13               78                       # Per bank write bursts
system.mem_ctrls.perBankRdBursts::14               28                       # Per bank write bursts
system.mem_ctrls.perBankRdBursts::15               92                       # Per bank write bursts
system.mem_ctrls.perBankWrBursts::0                 0                       # Per bank write bursts
system.mem_ctrls.perBankWrBursts::1                 0                       # Per bank write bursts
system.mem_ctrls.perBankWrBursts::2                 0                       # Per bank write bursts
system.mem_ctrls.perBankWrBursts::3                 0                       # Per bank write bursts
system.mem_ctrls.perBankWrBursts::4                 0                       # Per bank write bursts
system.mem_ctrls.perBankWrBursts::5                 0                       # Per bank write bursts
system.mem_ctrls.perBankWrBursts::6                 0                       # Per bank write bursts
system.mem_ctrls.perBankWrBursts::7                 0                       # Per bank write bursts
system.mem_ctrls.perBankWrBursts::8                 0                       # Per bank write bursts
system.mem_ctrls.perBankWrBursts::9                 0                       # Per bank write bursts
system.mem_ctrls.perBankWrBursts::10                0                       # Per bank write bursts
system.mem_ctrls.perBankWrBursts::11                0                       # Per bank write bursts
system.mem_ctrls.perBankWrBursts::12                0                       # Per bank write bursts
system.mem_ctrls.perBankWrBursts::13                0                       # Per bank write bursts
system.mem_ctrls.perBankWrBursts::14                0                       # Per bank write bursts
system.mem_ctrls.perBankWrBursts::15                0                       # Per bank write bursts
system.mem_ctrls.numRdRetry                         0                       # Number of times read queue was full causing retry
system.mem_ctrls.numWrRetry                         0                       # Number of times write queue was full causing retry
system.mem_ctrls.totGap                      64841000                       # Total gap between requests
system.mem_ctrls.readPktSize::0                     0                       # Read request sizes (log2)
system.mem_ctrls.readPktSize::1                     0                       # Read request sizes (log2)
system.mem_ctrls.readPktSize::2                     0                       # Read request sizes (log2)
system.mem_ctrls.readPktSize::3                     0                       # Read request sizes (log2)
system.mem_ctrls.readPktSize::4                     0                       # Read request sizes (log2)
system.mem_ctrls.readPktSize::5                     0                       # Read request sizes (log2)
system.mem_ctrls.readPktSize::6                   896                       # Read request sizes (log2)
system.mem_ctrls.writePktSize::0                    0                       # Write request sizes (log2)
system.mem_ctrls.writePktSize::1                    0                       # Write request sizes (log2)
system.mem_ctrls.writePktSize::2                    0                       # Write request sizes (log2)
system.mem_ctrls.writePktSize::3                    0                       # Write request sizes (log2)
system.mem_ctrls.writePktSize::4                    0                       # Write request sizes (log2)
system.mem_ctrls.writePktSize::5                    0                       # Write request sizes (log2)
system.mem_ctrls.writePktSize::6                    0                       # Write request sizes (log2)
system.mem_ctrls.rdQLenPdf::0                     448                       # What read queue length does an incoming req see
system.mem_ctrls.rdQLenPdf::1                     448                       # What read queue length does an incoming req see
system.mem_ctrls.rdQLenPdf::2                       0                       # What read queue length does an incoming req see
system.mem_ctrls.rdQLenPdf::3                       0                       # What read queue length does an incoming req see
system.mem_ctrls.rdQLenPdf::4                       0                       # What read queue length does an incoming req see
system.mem_ctrls.rdQLenPdf::5                       0                       # What read queue length does an incoming req see
system.mem_ctrls.rdQLenPdf::6                       0                       # What read queue length does an incoming req see
system.mem_ctrls.rdQLenPdf::7                       0                       # What read queue length does an incoming req see
system.mem_ctrls.rdQLenPdf::8                       0                       # What read queue length does an incoming req see
system.mem_ctrls.rdQLenPdf::9                       0                       # What read queue length does an incoming req see
system.mem_ctrls.rdQLenPdf::10                      0                       # What read queue length does an incoming req see
system.mem_ctrls.rdQLenPdf::11                      0                       # What read queue length does an incoming req see
system.mem_ctrls.rdQLenPdf::12                      0                       # What read queue length does an incoming req see
system.mem_ctrls.rdQLenPdf::13                      0                       # What read queue length does an incoming req see
system.mem_ctrls.rdQLenPdf::14                      0                       # What read queue length does an incoming req see
system.mem_ctrls.rdQLenPdf::15                      0                       # What read queue length does an incoming req see
system.mem_ctrls.rdQLenPdf::16                      0                       # What read queue length does an incoming req see
system.mem_ctrls.rdQLenPdf::17                      0                       # What read queue length does an incoming req see
system.mem_ctrls.rdQLenPdf::18                      0                       # What read queue length does an incoming req see
system.mem_ctrls.rdQLenPdf::19                      0                       # What read queue length does an incoming req see
system.mem_ctrls.rdQLenPdf::20                      0                       # What read queue length does an incoming req see
system.mem_ctrls.rdQLenPdf::21                      0                       # What read queue length does an incoming req see
system.mem_ctrls.rdQLenPdf::22                      0                       # What read queue length does an incoming req see
system.mem_ctrls.rdQLenPdf::23                      0                       # What read queue length does an incoming req see
system.mem_ctrls.rdQLenPdf::24                      0                       # What read queue length does an incoming req see
system.mem_ctrls.rdQLenPdf::25                      0                       # What read queue length does an incoming req see
system.mem_ctrls.rdQLenPdf::26                      0                       # What read queue length does an incoming req see
system.mem_ctrls.rdQLenPdf::27                      0                       # What read queue length does an incoming req see
system.mem_ctrls.rdQLenPdf::28                      0                       # What read queue length does an incoming req see
system.mem_ctrls.rdQLenPdf::29                      0                       # What read queue length does an incoming req see
system.mem_ctrls.rdQLenPdf::30                      0                       # What read queue length does an incoming req see
system.mem_ctrls.rdQLenPdf::31                      0                       # What read queue length does an incoming req see
system.mem_ctrls.wrQLenPdf::0                       0                       # What write queue length does an incoming req see
system.mem_ctrls.wrQLenPdf::1                       0                       # What write queue length does an incoming req see
system.mem_ctrls.wrQLenPdf::2                       0                       # What write queue length does an incoming req see
system.mem_ctrls.wrQLenPdf::3                       0                       # What write queue length does an incoming req see
system.mem_ctrls.wrQLenPdf::4                       0                       # What write queue length does an incoming req see
system.mem_ctrls.wrQLenPdf::5                       0                       # What write queue length does an incoming req see
system.mem_ctrls.wrQLenPdf::6                       0                       # What write queue length does an incoming req see
system.mem_ctrls.wrQLenPdf::7                       0                       # What write queue length does an incoming req see
system.mem_ctrls.wrQLenPdf::8                       0                       # What write queue length does an incoming req see
system.mem_ctrls.wrQLenPdf::9                       0                       # What write queue length does an incoming req see
system.mem_ctrls.wrQLenPdf::10                      0                       # What write queue length does an incoming req see
system.mem_ctrls.wrQLenPdf::11                      0                       # What write queue length does an incoming req see
system.mem_ctrls.wrQLenPdf::12                      0                       # What write queue length does an incoming req see
system.mem_ctrls.wrQLenPdf::13                      0                       # What write queue length does an incoming req see
system.mem_ctrls.wrQLenPdf::14                      0                       # What write queue length does an incoming req see
system.mem_ctrls.wrQLenPdf::15                      0                       # What write queue length does an incoming req see
system.mem_ctrls.wrQLenPdf::16                      0                       # What write queue length does an incoming req see
system.mem_ctrls.wrQLenPdf::17                      0                       # What write queue length does an incoming req see
system.mem_ctrls.wrQLenPdf::18                      0                       # What write queue length does an incoming req see
system.mem_ctrls.wrQLenPdf::19                      0                       # What write queue length does an incoming req see
system.mem_ctrls.wrQLenPdf::20                      0                       # What write queue length does an incoming req see
system.mem_ctrls.wrQLenPdf::21                      0                       # What write queue length does an incoming req see
system.mem_ctrls.wrQLenPdf::22                      0                       # What write queue length does an incoming req see
system.mem_ctrls.wrQLenPdf::23                      0                       # What write queue length does an incoming req see
system.mem_ctrls.wrQLenPdf::24                      0                       # What write queue length does an incoming req see
system.mem_ctrls.wrQLenPdf::25                      0                       # What write queue length does an incoming req see
system.mem_ctrls.wrQLenPdf::26                      0                       # What write queue length does an incoming req see
system.mem_ctrls.wrQLenPdf::27                      0                       # What write queue length does an incoming req see
system.mem_ctrls.wrQLenPdf::28                      0                       # What write queue length does an incoming req see
system.mem_ctrls.wrQLenPdf::29                      0                       # What write queue length does an incoming req see
system.mem_ctrls.wrQLenPdf::30                      0                       # What write queue length does an incoming req see
system.mem_ctrls.wrQLenPdf::31                      0                       # What write queue length does an incoming req see
system.mem_ctrls.wrQLenPdf::32                      0                       # What write queue length does an incoming req see
system.mem_ctrls.wrQLenPdf::33                      0                       # What write queue length does an incoming req see
system.mem_ctrls.wrQLenPdf::34                      0                       # What write queue length does an incoming req see
system.mem_ctrls.wrQLenPdf::35                      0                       # What write queue length does an incoming req see
system.mem_ctrls.wrQLenPdf::36                      0                       # What write queue length does an incoming req see
system.mem_ctrls.wrQLenPdf::37                      0                       # What write queue length does an incoming req see
system.mem_ctrls.wrQLenPdf::38                      0                       # What write queue length does an incoming req see
system.mem_ctrls.wrQLenPdf::39                      0                       # What write queue length does an incoming req see
system.mem_ctrls.wrQLenPdf::40                      0                       # What write queue length does an incoming req see
system.mem_ctrls.wrQLenPdf::41                      0                       # What write queue length does an incoming req see
system.mem_ctrls.wrQLenPdf::42                      0                       # What write queue length does an incoming req see
system.mem_ctrls.wrQLenPdf::43                      0                       # What write queue length does an incoming req see
system.mem_ctrls.wrQLenPdf::44                      0                       # What write queue length does an incoming req see
system.mem_ctrls.wrQLenPdf::45                      0                       # What write queue length does an incoming req see
system.mem_ctrls.wrQLenPdf::46                      0                       # What write queue length does an incoming req see
system.mem_ctrls.wrQLenPdf::47                      0                       # What write queue length does an incoming req see
system.mem_ctrls.wrQLenPdf::48                      0                       # What write queue length does an incoming req see
system.mem_ctrls.wrQLenPdf::49                      0                       # What write queue length does an incoming req see
system.mem_ctrls.wrQLenPdf::50                      0                       # What write queue length does an incoming req see
system.mem_ctrls.wrQLenPdf::51                      0                       # What write queue length does an incoming req see
system.mem_ctrls.wrQLenPdf::52                      0                       # What write queue length does an incoming req see
system.mem_ctrls.wrQLenPdf::53                      0                       # What write queue length does an incoming req see
system.mem_ctrls.wrQLenPdf::54                      0                       # What write queue length does an incoming req see
system.mem_ctrls.wrQLenPdf::55                      0                       # What write queue length does an incoming req see
system.mem_ctrls.wrQLenPdf::56                      0                       # What write queue length does an incoming req see
system.mem_ctrls.wrQLenPdf::57                      0                       # What write queue length does an incoming req see
system.mem_ctrls.wrQLenPdf::58                      0                       # What write queue length does an incoming req see
system.mem_ctrls.wrQLenPdf::59                      0                       # What write queue length does an incoming req see
system.mem_ctrls.wrQLenPdf::60                      0                       # What write queue length does an incoming req see
system.mem_ctrls.wrQLenPdf::61                      0                       # What write queue length does an incoming req see
system.mem_ctrls.wrQLenPdf::62                      0                       # What write queue length does an incoming req see
system.mem_ctrls.wrQLenPdf::63                      0                       # What write queue length does an incoming req see
system.mem_ctrls.bytesPerActivate::samples          162                       # Bytes accessed per row activation
system.mem_ctrls.bytesPerActivate::mean    344.493827                       # Bytes accessed per row activation
system.mem_ctrls.bytesPerActivate::gmean   266.184952                       # Bytes accessed per row activation
system.mem_ctrls.bytesPerActivate::stdev   265.477801                       # Bytes accessed per row activation
system.mem_ctrls.bytesPerActivate::128-255           64     39.51%     39.51% # Bytes accessed per row activation
system.mem_ctrls.bytesPerActivate::256-383           36     22.22%     61.73% # Bytes accessed per row activation
system.mem_ctrls.bytesPerActivate::384-511           18     11.11%     72.84% # Bytes accessed per row activation
system.mem_ctrls.bytesPerActivate::512-639           17     10.49%     83.33% # Bytes accessed per row activation
system.mem_ctrls.bytesPerActivate::640-767           10      6.17%     89.51% # Bytes accessed per row activation
system.mem_ctrls.bytesPerActivate::768-895            3      1.85%     91.36% # Bytes accessed per row activation
system.mem_ctrls.bytesPerActivate::896-1023            2      1.23%     92.59% # Bytes accessed per row activation
system.mem_ctrls.bytesPerActivate::1024-1151           12      7.41%    100.00% # Bytes accessed per row activation
system.mem_ctrls.bytesPerActivate::total          162                       # Bytes accessed per row activation
system.mem_ctrls.totQLat                     10390000                       # Total ticks spent queuing
system.mem_ctrls.totMemAccLat                27190000                       # Total ticks spent from burst creation until serviced by the DRAM
system.mem_ctrls.totBusLat                    4480000                       # Total ticks spent in databus transfers
system.mem_ctrls.avgQLat                     11595.98                       # Average queueing delay per DRAM burst
system.mem_ctrls.avgBusLat                    5000.00                       # Average bus latency per DRAM burst
system.mem_ctrls.avgMemAccLat                30345.98                       # Average memory access latency per DRAM burst
system.mem_ctrls.avgRdBW                       883.20                       # Average DRAM read bandwidth in MiByte/s
system.mem_ctrls.avgWrBW                         0.00                       # Average achieved write bandwidth in MiByte/s
system.mem_ctrls.avgRdBWSys                    883.20                       # Average system read bandwidth in MiByte/s
system.mem_ctrls.avgWrBWSys                      0.00                       # Average system write bandwidth in MiByte/s
system.mem_ctrls.peakBW                      12800.00                       # Theoretical peak bandwidth in MiByte/s
system.mem_ctrls.busUtil                         6.90                       # Data bus utilization in percentage
system.mem_ctrls.busUtilRead                     6.90                       # Data bus utilization in percentage for reads
system.mem_ctrls.busUtilWrite                    0.00                       # Data bus utilization in percentage for writes
system.mem_ctrls.avgRdQLen                       2.00                       # Average read queue length when enqueuing
system.mem_ctrls.avgWrQLen                       0.00                       # Average write queue length when enqueuing
system.mem_ctrls.readRowHits                      727                       # Number of row buffer hits during reads
system.mem_ctrls.writeRowHits                       0                       # Number of row buffer hits during writes
system.mem_ctrls.readRowHitRate                 81.14                       # Row buffer hit rate for reads
system.mem_ctrls.writeRowHitRate                  nan                       # Row buffer hit rate for writes
system.mem_ctrls.avgGap                     144734.38                       # Average gap between requests
system.mem_ctrls.pageHitRate                    81.14                       # Row buffer hit rate, read and write combined
system.mem_ctrls_0.actEnergy                   635040                       # Energy for activate commands per rank (pJ)
system.mem_ctrls_0.preEnergy                   346500                       # Energy for precharge commands per rank (pJ)
system.mem_ctrls_0.readEnergy                 3759600                       # Energy for read commands per rank (pJ)
system.mem_ctrls_0.writeEnergy                      0                       # Energy for write commands per rank (pJ)
system.mem_ctrls_0.refreshEnergy              4068480                       # Energy for refresh commands per rank (pJ)
system.mem_ctrls_0.actBackEnergy             38681910                       # Energy for active background per rank (pJ)
system.mem_ctrls_0.preBackEnergy              3598500                       # Energy for precharge background per rank (pJ)
system.mem_ctrls_0.totalEnergy               51090030                       # Total energy per rank (pJ)
system.mem_ctrls_0.averagePower            816.787050                       # Core power per rank (mW)
system.mem_ctrls_0.memoryStateTime::IDLE      6243250                       # Time in different power states
system.mem_ctrls_0.memoryStateTime::REF       2080000                       # Time in different power states
system.mem_ctrls_0.memoryStateTime::PRE_PDN            0                       # Time in different power states
system.mem_ctrls_0.memoryStateTime::ACT      54721250                       # Time in different power states
system.mem_ctrls_0.memoryStateTime::ACT_PDN            0                       # Time in different power states
system.mem_ctrls_1.actEnergy                   559440                       # Energy for activate commands per rank (pJ)
system.mem_ctrls_1.preEnergy                   305250                       # Energy for precharge commands per rank (pJ)
system.mem_ctrls_1.readEnergy                 2886000                       # Energy for read commands per rank (pJ)
system.mem_ctrls_1.writeEnergy                      0                       # Energy for write commands per rank (pJ)
system.mem_ctrls_1.refreshEnergy              4068480                       # Energy for refresh commands per rank (pJ)
system.mem_ctrls_1.actBackEnergy             38659680                       # Energy for active background per rank (pJ)
system.mem_ctrls_1.preBackEnergy              3618000                       # Energy for precharge background per rank (pJ)
system.mem_ctrls_1.totalEnergy               50096850                       # Total energy per rank (pJ)
system.mem_ctrls_1.averagePower            800.908873                       # Core power per rank (mW)
system.mem_ctrls_1.memoryStateTime::IDLE      6378000                       # Time in different power states
system.mem_ctrls_1.memoryStateTime::REF       2080000                       # Time in different power states
system.mem_ctrls_1.memoryStateTime::PRE_PDN            0                       # Time in different power states
system.mem_ctrls_1.memoryStateTime::ACT      54665000                       # Time in different power states
system.mem_ctrls_1.memoryStateTime::ACT_PDN            0                       # Time in different power states
system.ruby_clk_domain.clock                      500                       # Clock period in ticks
system.ruby.phys_mem.bytes_read::cpu0.inst       235096                       # Number of bytes read from this memory
system.ruby.phys_mem.bytes_read::cpu0.data        31685                       # Number of bytes read from this memory
system.ruby.phys_mem.bytes_read::total         266781                       # Number of bytes read from this memory
system.ruby.phys_mem.bytes_inst_read::cpu0.inst       235096                       # Number of instructions bytes read from this memory
system.ruby.phys_mem.bytes_inst_read::total       235096                       # Number of instructions bytes read from this memory
system.ruby.phys_mem.bytes_written::cpu0.data        24707                       # Number of bytes written to this memory
system.ruby.phys_mem.bytes_written::total        24707                       # Number of bytes written to this memory
system.ruby.phys_mem.num_reads::cpu0.inst        29387                       # Number of read requests responded to by this memory
system.ruby.phys_mem.num_reads::cpu0.data         5151                       # Number of read requests responded to by this memory
system.ruby.phys_mem.num_reads::total           34538                       # Number of read requests responded to by this memory
system.ruby.phys_mem.num_writes::cpu0.data         3671                       # Number of write requests responded to by this memory
system.ruby.phys_mem.num_writes::total           3671                       # Number of write requests responded to by this memory
system.ruby.phys_mem.bw_read::cpu0.inst    3620900235                       # Total read bandwidth from this memory (bytes/s)
system.ruby.phys_mem.bw_read::cpu0.data     488005853                       # Total read bandwidth from this memory (bytes/s)
system.ruby.phys_mem.bw_read::total        4108906088                       # Total read bandwidth from this memory (bytes/s)
system.ruby.phys_mem.bw_inst_read::cpu0.inst   3620900235                       # Instruction read bandwidth from this memory (bytes/s)
system.ruby.phys_mem.bw_inst_read::total   3620900235                       # Instruction read bandwidth from this memory (bytes/s)
system.ruby.phys_mem.bw_write::cpu0.data    380532132                       # Write bandwidth from this memory (bytes/s)
system.ruby.phys_mem.bw_write::total        380532132                       # Write bandwidth from this memory (bytes/s)
system.ruby.phys_mem.bw_total::cpu0.inst   3620900235                       # Total bandwidth to/from this memory (bytes/s)
system.ruby.phys_mem.bw_total::cpu0.data    868537985                       # Total bandwidth to/from this memory (bytes/s)
system.ruby.phys_mem.bw_total::total       4489438220                       # Total bandwidth to/from this memory (bytes/s)
system.cpu_voltage_domain.voltage                   1                       # Voltage in Volts
system.cpu_clk_domain.clock                       500                       # Clock period in ticks
system.cpu0.apic_clk_domain.clock                8000                       # Clock period in ticks
system.cpu0.workload.num_syscalls                  18                       # Number of system calls
system.cpu0.numCycles                          129855                       # number of cpu cycles simulated
system.cpu0.numWorkItemsStarted                     0                       # number of work items this cpu started
system.cpu0.numWorkItemsCompleted                   0                       # number of work items this cpu completed
system.cpu0.committedInsts                      22347                       # Number of instructions committed
system.cpu0.committedOps                        44579                       # Number of ops (including micro ops) committed
system.cpu0.num_int_alu_accesses                43639                       # Number of integer alu accesses
system.cpu0.num_fp_alu_accesses                  1281                       # Number of float alu accesses
system.cpu0.num_func_calls                        803                       # number of times a function call or return occured
system.cpu0.num_conditional_control_insts         3987                       # number of instructions that are conditional controls
system.cpu0.num_int_insts                       43639                       # number of integer instructions
system.cpu0.num_fp_insts                         1281                       # number of float instructions
system.cpu0.num_int_register_reads              84502                       # number of times the integer registers were read
system.cpu0.num_int_register_writes             34889                       # number of times the integer registers were written
system.cpu0.num_fp_register_reads                2127                       # number of times the floating registers were read
system.cpu0.num_fp_register_writes                955                       # number of times the floating registers were written
system.cpu0.num_cc_register_reads               26593                       # number of times the CC registers were read
system.cpu0.num_cc_register_writes              13981                       # number of times the CC registers were written
system.cpu0.num_mem_refs                         8818                       # number of memory refs
system.cpu0.num_load_insts                       5148                       # Number of load instructions
system.cpu0.num_store_insts                      3670                       # Number of store instructions
system.cpu0.num_idle_cycles                  0.002000                       # Number of idle cycles
system.cpu0.num_busy_cycles              129854.998000                       # Number of busy cycles
system.cpu0.not_idle_fraction                1.000000                       # Percentage of non-idle cycles
system.cpu0.idle_fraction                    0.000000                       # Percentage of idle cycles
system.cpu0.Branches                             5144                       # Number of branches fetched
system.cpu0.op_class::No_OpClass                  164      0.37%      0.37% # Class of executed instruction
system.cpu0.op_class::IntAlu                    34630     77.68%     78.05% # Class of executed instruction
system.cpu0.op_class::IntMult                      25      0.06%     78.11% # Class of executed instruction
system.cpu0.op_class::IntDiv                       84      0.19%     78.29% # Class of executed instruction
system.cpu0.op_class::FloatAdd                    858      1.92%     80.22% # Class of executed instruction
system.cpu0.op_class::FloatCmp                      0      0.00%     80.22% # Class of executed instruction
system.cpu0.op_class::FloatCvt                      0      0.00%     80.22% # Class of executed instruction
system.cpu0.op_class::FloatMult                     0      0.00%     80.22% # Class of executed instruction
system.cpu0.op_class::FloatDiv                      0      0.00%     80.22% # Class of executed instruction
system.cpu0.op_class::FloatSqrt                     0      0.00%     80.22% # Class of executed instruction
system.cpu0.op_class::SimdAdd                       0      0.00%     80.22% # Class of executed instruction
system.cpu0.op_class::SimdAddAcc                    0      0.00%     80.22% # Class of executed instruction
system.cpu0.op_class::SimdAlu                       0      0.00%     80.22% # Class of executed instruction
system.cpu0.op_class::SimdCmp                       0      0.00%     80.22% # Class of executed instruction
system.cpu0.op_class::SimdCvt                       0      0.00%     80.22% # Class of executed instruction
system.cpu0.op_class::SimdMisc                      0      0.00%     80.22% # Class of executed instruction
system.cpu0.op_class::SimdMult                      0      0.00%     80.22% # Class of executed instruction
system.cpu0.op_class::SimdMultAcc                   0      0.00%     80.22% # Class of executed instruction
system.cpu0.op_class::SimdShift                     0      0.00%     80.22% # Class of executed instruction
system.cpu0.op_class::SimdShiftAcc                  0      0.00%     80.22% # Class of executed instruction
system.cpu0.op_class::SimdSqrt                      0      0.00%     80.22% # Class of executed instruction
system.cpu0.op_class::SimdFloatAdd                  0      0.00%     80.22% # Class of executed instruction
system.cpu0.op_class::SimdFloatAlu                  0      0.00%     80.22% # Class of executed instruction
system.cpu0.op_class::SimdFloatCmp                  0      0.00%     80.22% # Class of executed instruction
system.cpu0.op_class::SimdFloatCvt                  0      0.00%     80.22% # Class of executed instruction
system.cpu0.op_class::SimdFloatDiv                  0      0.00%     80.22% # Class of executed instruction
system.cpu0.op_class::SimdFloatMisc                 0      0.00%     80.22% # Class of executed instruction
system.cpu0.op_class::SimdFloatMult                 0      0.00%     80.22% # Class of executed instruction
system.cpu0.op_class::SimdFloatMultAcc              0      0.00%     80.22% # Class of executed instruction
system.cpu0.op_class::SimdFloatSqrt                 0      0.00%     80.22% # Class of executed instruction
system.cpu0.op_class::MemRead                    5148     11.55%     91.77% # Class of executed instruction
system.cpu0.op_class::MemWrite                   3670      8.23%    100.00% # Class of executed instruction
system.cpu0.op_class::IprAccess                     0      0.00%    100.00% # Class of executed instruction
system.cpu0.op_class::InstPrefetch                  0      0.00%    100.00% # Class of executed instruction
system.cpu0.op_class::total                     44579                       # Class of executed instruction
system.cpu1.apic_clk_domain.clock                8000                       # Clock period in ticks
system.cpu1.numCycles                               0                       # number of cpu cycles simulated
system.cpu1.numWorkItemsStarted                     0                       # number of work items this cpu started
system.cpu1.numWorkItemsCompleted                   0                       # number of work items this cpu completed
system.cpu1.committedInsts                          0                       # Number of instructions committed
system.cpu1.committedOps                            0                       # Number of ops (including micro ops) committed
system.cpu1.num_int_alu_accesses                    0                       # Number of integer alu accesses
system.cpu1.num_fp_alu_accesses                     0                       # Number of float alu accesses
system.cpu1.num_func_calls                          0                       # number of times a function call or return occured
system.cpu1.num_conditional_control_insts            0                       # number of instructions that are conditional controls
system.cpu1.num_int_insts                           0                       # number of integer instructions
system.cpu1.num_fp_insts                            0                       # number of float instructions
system.cpu1.num_int_register_reads                  0                       # number of times the integer registers were read
system.cpu1.num_int_register_writes                 0                       # number of times the integer registers were written
system.cpu1.num_fp_register_reads                   0                       # number of times the floating registers were read
system.cpu1.num_fp_register_writes                  0                       # number of times the floating registers were written
system.cpu1.num_mem_refs                            0                       # number of memory refs
system.cpu1.num_load_insts                          0                       # Number of load instructions
system.cpu1.num_store_insts                         0                       # Number of store instructions
system.cpu1.num_idle_cycles                         0                       # Number of idle cycles
system.cpu1.num_busy_cycles                         0                       # Number of busy cycles
system.cpu1.not_idle_fraction                       0                       # Percentage of non-idle cycles
system.cpu1.idle_fraction                           1                       # Percentage of idle cycles
system.cpu1.op_class::No_OpClass                    0                       # Class of executed instruction
system.cpu1.op_class::IntAlu                        0                       # Class of executed instruction
system.cpu1.op_class::IntMult                       0                       # Class of executed instruction
system.cpu1.op_class::IntDiv                        0                       # Class of executed instruction
system.cpu1.op_class::FloatAdd                      0                       # Class of executed instruction
system.cpu1.op_class::FloatCmp                      0                       # Class of executed instruction
system.cpu1.op_class::FloatCvt                      0                       # Class of executed instruction
system.cpu1.op_class::FloatMult                     0                       # Class of executed instruction
system.cpu1.op_class::FloatDiv                      0                       # Class of executed instruction
system.cpu1.op_class::FloatSqrt                     0                       # Class of executed instruction
system.cpu1.op_class::SimdAdd                       0                       # Class of executed instruction
system.cpu1.op_class::SimdAddAcc                    0                       # Class of executed instruction
system.cpu1.op_class::SimdAlu                       0                       # Class of executed instruction
system.cpu1.op_class::SimdCmp                       0                       # Class of executed instruction
system.cpu1.op_class::SimdCvt                       0                       # Class of executed instruction
system.cpu1.op_class::SimdMisc                      0                       # Class of executed instruction
system.cpu1.op_class::SimdMult                      0                       # Class of executed instruction
system.cpu1.op_class::SimdMultAcc                   0                       # Class of executed instruction
system.cpu1.op_class::SimdShift                     0                       # Class of executed instruction
system.cpu1.op_class::SimdShiftAcc                  0                       # Class of executed instruction
system.cpu1.op_class::SimdSqrt                      0                       # Class of executed instruction
system.cpu1.op_class::SimdFloatAdd                  0                       # Class of executed instruction
system.cpu1.op_class::SimdFloatAlu                  0                       # Class of executed instruction
system.cpu1.op_class::SimdFloatCmp                  0                       # Class of executed instruction
system.cpu1.op_class::SimdFloatCvt                  0                       # Class of executed instruction
system.cpu1.op_class::SimdFloatDiv                  0                       # Class of executed instruction
system.cpu1.op_class::SimdFloatMisc                 0                       # Class of executed instruction
system.cpu1.op_class::SimdFloatMult                 0                       # Class of executed instruction
system.cpu1.op_class::SimdFloatMultAcc              0                       # Class of executed instruction
system.cpu1.op_class::SimdFloatSqrt                 0                       # Class of executed instruction
system.cpu1.op_class::MemRead                       0                       # Class of executed instruction
system.cpu1.op_class::MemWrite                      0                       # Class of executed instruction
system.cpu1.op_class::IprAccess                     0                       # Class of executed instruction
system.cpu1.op_class::InstPrefetch                  0                       # Class of executed instruction
system.cpu1.op_class::total                         0                       # Class of executed instruction
system.cpu2.apic_clk_domain.clock                8000                       # Clock period in ticks
system.cpu2.numCycles                               0                       # number of cpu cycles simulated
system.cpu2.numWorkItemsStarted                     0                       # number of work items this cpu started
system.cpu2.numWorkItemsCompleted                   0                       # number of work items this cpu completed
system.cpu2.committedInsts                          0                       # Number of instructions committed
system.cpu2.committedOps                            0                       # Number of ops (including micro ops) committed
system.cpu2.num_int_alu_accesses                    0                       # Number of integer alu accesses
system.cpu2.num_fp_alu_accesses                     0                       # Number of float alu accesses
system.cpu2.num_func_calls                          0                       # number of times a function call or return occured
system.cpu2.num_conditional_control_insts            0                       # number of instructions that are conditional controls
system.cpu2.num_int_insts                           0                       # number of integer instructions
system.cpu2.num_fp_insts                            0                       # number of float instructions
system.cpu2.num_int_register_reads                  0                       # number of times the integer registers were read
system.cpu2.num_int_register_writes                 0                       # number of times the integer registers were written
system.cpu2.num_fp_register_reads                   0                       # number of times the floating registers were read
system.cpu2.num_fp_register_writes                  0                       # number of times the floating registers were written
system.cpu2.num_mem_refs                            0                       # number of memory refs
system.cpu2.num_load_insts                          0                       # Number of load instructions
system.cpu2.num_store_insts                         0                       # Number of store instructions
system.cpu2.num_idle_cycles                         0                       # Number of idle cycles
system.cpu2.num_busy_cycles                         0                       # Number of busy cycles
system.cpu2.not_idle_fraction                       0                       # Percentage of non-idle cycles
system.cpu2.idle_fraction                           1                       # Percentage of idle cycles
system.cpu2.op_class::No_OpClass                    0                       # Class of executed instruction
system.cpu2.op_class::IntAlu                        0                       # Class of executed instruction
system.cpu2.op_class::IntMult                       0                       # Class of executed instruction
system.cpu2.op_class::IntDiv                        0                       # Class of executed instruction
system.cpu2.op_class::FloatAdd                      0                       # Class of executed instruction
system.cpu2.op_class::FloatCmp                      0                       # Class of executed instruction
system.cpu2.op_class::FloatCvt                      0                       # Class of executed instruction
system.cpu2.op_class::FloatMult                     0                       # Class of executed instruction
system.cpu2.op_class::FloatDiv                      0                       # Class of executed instruction
system.cpu2.op_class::FloatSqrt                     0                       # Class of executed instruction
system.cpu2.op_class::SimdAdd                       0                       # Class of executed instruction
system.cpu2.op_class::SimdAddAcc                    0                       # Class of executed instruction
system.cpu2.op_class::SimdAlu                       0                       # Class of executed instruction
system.cpu2.op_class::SimdCmp                       0                       # Class of executed instruction
system.cpu2.op_class::SimdCvt                       0                       # Class of executed instruction
system.cpu2.op_class::SimdMisc                      0                       # Class of executed instruction
system.cpu2.op_class::SimdMult                      0                       # Class of executed instruction
system.cpu2.op_class::SimdMultAcc                   0                       # Class of executed instruction
system.cpu2.op_class::SimdShift                     0                       # Class of executed instruction
system.cpu2.op_class::SimdShiftAcc                  0                       # Class of executed instruction
system.cpu2.op_class::SimdSqrt                      0                       # Class of executed instruction
system.cpu2.op_class::SimdFloatAdd                  0                       # Class of executed instruction
system.cpu2.op_class::SimdFloatAlu                  0                       # Class of executed instruction
system.cpu2.op_class::SimdFloatCmp                  0                       # Class of executed instruction
system.cpu2.op_class::SimdFloatCvt                  0                       # Class of executed instruction
system.cpu2.op_class::SimdFloatDiv                  0                       # Class of executed instruction
system.cpu2.op_class::SimdFloatMisc                 0                       # Class of executed instruction
system.cpu2.op_class::SimdFloatMult                 0                       # Class of executed instruction
system.cpu2.op_class::SimdFloatMultAcc              0                       # Class of executed instruction
system.cpu2.op_class::SimdFloatSqrt                 0                       # Class of executed instruction
system.cpu2.op_class::MemRead                       0                       # Class of executed instruction
system.cpu2.op_class::MemWrite                      0                       # Class of executed instruction
system.cpu2.op_class::IprAccess                     0                       # Class of executed instruction
system.cpu2.op_class::InstPrefetch                  0                       # Class of executed instruction
system.cpu2.op_class::total                         0                       # Class of executed instruction
system.cpu3.apic_clk_domain.clock                8000                       # Clock period in ticks
system.cpu3.numCycles                               0                       # number of cpu cycles simulated
system.cpu3.numWorkItemsStarted                     0                       # number of work items this cpu started
system.cpu3.numWorkItemsCompleted                   0                       # number of work items this cpu completed
system.cpu3.committedInsts                          0                       # Number of instructions committed
system.cpu3.committedOps                            0                       # Number of ops (including micro ops) committed
system.cpu3.num_int_alu_accesses                    0                       # Number of integer alu accesses
system.cpu3.num_fp_alu_accesses                     0                       # Number of float alu accesses
system.cpu3.num_func_calls                          0                       # number of times a function call or return occured
system.cpu3.num_conditional_control_insts            0                       # number of instructions that are conditional controls
system.cpu3.num_int_insts                           0                       # number of integer instructions
system.cpu3.num_fp_insts                            0                       # number of float instructions
system.cpu3.num_int_register_reads                  0                       # number of times the integer registers were read
system.cpu3.num_int_register_writes                 0                       # number of times the integer registers were written
system.cpu3.num_fp_register_reads                   0                       # number of times the floating registers were read
system.cpu3.num_fp_register_writes                  0                       # number of times the floating registers were written
system.cpu3.num_mem_refs                            0                       # number of memory refs
system.cpu3.num_load_insts                          0                       # Number of load instructions
system.cpu3.num_store_insts                         0                       # Number of store instructions
system.cpu3.num_idle_cycles                         0                       # Number of idle cycles
system.cpu3.num_busy_cycles                         0                       # Number of busy cycles
system.cpu3.not_idle_fraction                       0                       # Percentage of non-idle cycles
system.cpu3.idle_fraction                           1                       # Percentage of idle cycles
system.cpu3.op_class::No_OpClass                    0                       # Class of executed instruction
system.cpu3.op_class::IntAlu                        0                       # Class of executed instruction
system.cpu3.op_class::IntMult                       0                       # Class of executed instruction
system.cpu3.op_class::IntDiv                        0                       # Class of executed instruction
system.cpu3.op_class::FloatAdd                      0                       # Class of executed instruction
system.cpu3.op_class::FloatCmp                      0                       # Class of executed instruction
system.cpu3.op_class::FloatCvt                      0                       # Class of executed instruction
system.cpu3.op_class::FloatMult                     0                       # Class of executed instruction
system.cpu3.op_class::FloatDiv                      0                       # Class of executed instruction
system.cpu3.op_class::FloatSqrt                     0                       # Class of executed instruction
system.cpu3.op_class::SimdAdd                       0                       # Class of executed instruction
system.cpu3.op_class::SimdAddAcc                    0                       # Class of executed instruction
system.cpu3.op_class::SimdAlu                       0                       # Class of executed instruction
system.cpu3.op_class::SimdCmp                       0                       # Class of executed instruction
system.cpu3.op_class::SimdCvt                       0                       # Class of executed instruction
system.cpu3.op_class::SimdMisc                      0                       # Class of executed instruction
system.cpu3.op_class::SimdMult                      0                       # Class of executed instruction
system.cpu3.op_class::SimdMultAcc                   0                       # Class of executed instruction
system.cpu3.op_class::SimdShift                     0                       # Class of executed instruction
system.cpu3.op_class::SimdShiftAcc                  0                       # Class of executed instruction
system.cpu3.op_class::SimdSqrt                      0                       # Class of executed instruction
system.cpu3.op_class::SimdFloatAdd                  0                       # Class of executed instruction
system.cpu3.op_class::SimdFloatAlu                  0                       # Class of executed instruction
system.cpu3.op_class::SimdFloatCmp                  0                       # Class of executed instruction
system.cpu3.op_class::SimdFloatCvt                  0                       # Class of executed instruction
system.cpu3.op_class::SimdFloatDiv                  0                       # Class of executed instruction
system.cpu3.op_class::SimdFloatMisc                 0                       # Class of executed instruction
system.cpu3.op_class::SimdFloatMult                 0                       # Class of executed instruction
system.cpu3.op_class::SimdFloatMultAcc              0                       # Class of executed instruction
system.cpu3.op_class::SimdFloatSqrt                 0                       # Class of executed instruction
system.cpu3.op_class::MemRead                       0                       # Class of executed instruction
system.cpu3.op_class::MemWrite                      0                       # Class of executed instruction
system.cpu3.op_class::IprAccess                     0                       # Class of executed instruction
system.cpu3.op_class::InstPrefetch                  0                       # Class of executed instruction
system.cpu3.op_class::total                         0                       # Class of executed instruction
system.gpu.clk_domain.voltage_domain.voltage            1                       # Voltage in Volts
system.gpu.clk_domain.clock                      1429                       # Clock period in ticks
system.gpu.dram_wrapper.clk_domain.clock          541                       # Clock period in ticks
system.gpu.icnt_wrapper.clk_domain.clock         2858                       # Clock period in ticks
system.ruby.outstanding_req_hist::bucket_size            1                      
system.ruby.outstanding_req_hist::max_bucket            9                      
system.ruby.outstanding_req_hist::samples        38209                      
system.ruby.outstanding_req_hist::mean       1.000105                      
system.ruby.outstanding_req_hist::gmean      1.000073                      
system.ruby.outstanding_req_hist::stdev      0.010231                      
system.ruby.outstanding_req_hist         |           0      0.00%      0.00% |       38205     99.99%     99.99% |           4      0.01%    100.00% |           0      0.00%    100.00% |           0      0.00%    100.00% |           0      0.00%    100.00% |           0      0.00%    100.00% |           0      0.00%    100.00% |           0      0.00%    100.00% |           0      0.00%    100.00%
system.ruby.outstanding_req_hist::total         38209                      
system.ruby.latency_hist::bucket_size             128                      
system.ruby.latency_hist::max_bucket             1279                      
system.ruby.latency_hist::samples               38209                      
system.ruby.latency_hist::mean               2.398702                      
system.ruby.latency_hist::gmean              1.060011                      
system.ruby.latency_hist::stdev             13.655807                      
system.ruby.latency_hist                 |       38040     99.56%     99.56% |         166      0.43%     99.99% |           0      0.00%     99.99% |           0      0.00%     99.99% |           2      0.01%    100.00% |           1      0.00%    100.00% |           0      0.00%    100.00% |           0      0.00%    100.00% |           0      0.00%    100.00% |           0      0.00%    100.00%
system.ruby.latency_hist::total                 38209                      
system.ruby.hit_latency_hist::bucket_size            2                      
system.ruby.hit_latency_hist::max_bucket           19                      
system.ruby.hit_latency_hist::samples           37761                      
system.ruby.hit_latency_hist::mean           1.014300                      
system.ruby.hit_latency_hist::gmean          1.002647                      
system.ruby.hit_latency_hist::stdev          0.462934                      
system.ruby.hit_latency_hist             |       37725     99.90%     99.90% |           0      0.00%     99.90% |           0      0.00%     99.90% |           0      0.00%     99.90% |           0      0.00%     99.90% |           0      0.00%     99.90% |           0      0.00%     99.90% |           0      0.00%     99.90% |          36      0.10%    100.00% |           0      0.00%    100.00%
system.ruby.hit_latency_hist::total             37761                      
system.ruby.miss_latency_hist::bucket_size          128                      
system.ruby.miss_latency_hist::max_bucket         1279                      
system.ruby.miss_latency_hist::samples            448                      
system.ruby.miss_latency_hist::mean        119.087054                      
system.ruby.miss_latency_hist::gmean       115.321920                      
system.ruby.miss_latency_hist::stdev        45.968562                      
system.ruby.miss_latency_hist            |         279     62.28%     62.28% |         166     37.05%     99.33% |           0      0.00%     99.33% |           0      0.00%     99.33% |           2      0.45%     99.78% |           1      0.22%    100.00% |           0      0.00%    100.00% |           0      0.00%    100.00% |           0      0.00%    100.00% |           0      0.00%    100.00%
system.ruby.miss_latency_hist::total              448                      
system.gpu.shader_mmu.numPagefaults                 0                       # Number of Pagefaults
system.gpu.shader_mmu.numPagewalks                  0                       # Number of Pagewalks
system.gpu.shader_mmu.totalRequests                 0                       # Total number of requests
system.gpu.shader_mmu.l2hits                        0                       # Hits in the shared L2
system.gpu.shader_mmu.prefetchHits                  0                       # Number of prefetch hits
system.gpu.shader_mmu.numPrefetches                 0                       # Number of prefetchs
system.gpu.shader_mmu.prefetchFaults                0                       # Number of faults caused by prefetches
system.gpu.shader_mmu.pagefaultLatency::samples            0                       # Latency to complete the pagefault
system.gpu.shader_mmu.pagefaultLatency::mean          nan                       # Latency to complete the pagefault
system.gpu.shader_mmu.pagefaultLatency::gmean          nan                       # Latency to complete the pagefault
system.gpu.shader_mmu.pagefaultLatency::stdev          nan                       # Latency to complete the pagefault
system.gpu.shader_mmu.pagefaultLatency::0            0                       # Latency to complete the pagefault
system.gpu.shader_mmu.pagefaultLatency::1            0                       # Latency to complete the pagefault
system.gpu.shader_mmu.pagefaultLatency::2            0                       # Latency to complete the pagefault
system.gpu.shader_mmu.pagefaultLatency::3            0                       # Latency to complete the pagefault
system.gpu.shader_mmu.pagefaultLatency::4            0                       # Latency to complete the pagefault
system.gpu.shader_mmu.pagefaultLatency::5            0                       # Latency to complete the pagefault
system.gpu.shader_mmu.pagefaultLatency::6            0                       # Latency to complete the pagefault
system.gpu.shader_mmu.pagefaultLatency::7            0                       # Latency to complete the pagefault
system.gpu.shader_mmu.pagefaultLatency::8            0                       # Latency to complete the pagefault
system.gpu.shader_mmu.pagefaultLatency::9            0                       # Latency to complete the pagefault
system.gpu.shader_mmu.pagefaultLatency::10            0                       # Latency to complete the pagefault
system.gpu.shader_mmu.pagefaultLatency::11            0                       # Latency to complete the pagefault
system.gpu.shader_mmu.pagefaultLatency::12            0                       # Latency to complete the pagefault
system.gpu.shader_mmu.pagefaultLatency::13            0                       # Latency to complete the pagefault
system.gpu.shader_mmu.pagefaultLatency::14            0                       # Latency to complete the pagefault
system.gpu.shader_mmu.pagefaultLatency::15            0                       # Latency to complete the pagefault
system.gpu.shader_mmu.pagefaultLatency::16            0                       # Latency to complete the pagefault
system.gpu.shader_mmu.pagefaultLatency::17            0                       # Latency to complete the pagefault
system.gpu.shader_mmu.pagefaultLatency::18            0                       # Latency to complete the pagefault
system.gpu.shader_mmu.pagefaultLatency::19            0                       # Latency to complete the pagefault
system.gpu.shader_mmu.pagefaultLatency::20            0                       # Latency to complete the pagefault
system.gpu.shader_mmu.pagefaultLatency::21            0                       # Latency to complete the pagefault
system.gpu.shader_mmu.pagefaultLatency::22            0                       # Latency to complete the pagefault
system.gpu.shader_mmu.pagefaultLatency::23            0                       # Latency to complete the pagefault
system.gpu.shader_mmu.pagefaultLatency::24            0                       # Latency to complete the pagefault
system.gpu.shader_mmu.pagefaultLatency::25            0                       # Latency to complete the pagefault
system.gpu.shader_mmu.pagefaultLatency::26            0                       # Latency to complete the pagefault
system.gpu.shader_mmu.pagefaultLatency::27            0                       # Latency to complete the pagefault
system.gpu.shader_mmu.pagefaultLatency::28            0                       # Latency to complete the pagefault
system.gpu.shader_mmu.pagefaultLatency::29            0                       # Latency to complete the pagefault
system.gpu.shader_mmu.pagefaultLatency::30            0                       # Latency to complete the pagefault
system.gpu.shader_mmu.pagefaultLatency::31            0                       # Latency to complete the pagefault
system.gpu.shader_mmu.pagefaultLatency::total            0                       # Latency to complete the pagefault
system.gpu.shader_mmu.concurrentWalks::samples            0                       # Number of outstanding walks
system.gpu.shader_mmu.concurrentWalks::mean          nan                       # Number of outstanding walks
system.gpu.shader_mmu.concurrentWalks::gmean          nan                       # Number of outstanding walks
system.gpu.shader_mmu.concurrentWalks::stdev          nan                       # Number of outstanding walks
system.gpu.shader_mmu.concurrentWalks::0            0                       # Number of outstanding walks
system.gpu.shader_mmu.concurrentWalks::1            0                       # Number of outstanding walks
system.gpu.shader_mmu.concurrentWalks::2            0                       # Number of outstanding walks
system.gpu.shader_mmu.concurrentWalks::3            0                       # Number of outstanding walks
system.gpu.shader_mmu.concurrentWalks::4            0                       # Number of outstanding walks
system.gpu.shader_mmu.concurrentWalks::5            0                       # Number of outstanding walks
system.gpu.shader_mmu.concurrentWalks::6            0                       # Number of outstanding walks
system.gpu.shader_mmu.concurrentWalks::7            0                       # Number of outstanding walks
system.gpu.shader_mmu.concurrentWalks::8            0                       # Number of outstanding walks
system.gpu.shader_mmu.concurrentWalks::9            0                       # Number of outstanding walks
system.gpu.shader_mmu.concurrentWalks::10            0                       # Number of outstanding walks
system.gpu.shader_mmu.concurrentWalks::11            0                       # Number of outstanding walks
system.gpu.shader_mmu.concurrentWalks::12            0                       # Number of outstanding walks
system.gpu.shader_mmu.concurrentWalks::13            0                       # Number of outstanding walks
system.gpu.shader_mmu.concurrentWalks::14            0                       # Number of outstanding walks
system.gpu.shader_mmu.concurrentWalks::15            0                       # Number of outstanding walks
system.gpu.shader_mmu.concurrentWalks::total            0                       # Number of outstanding walks
system.gpu.shader_mmu.pagewalkLatency::samples            0                       # Latency to complete the pagewalk
system.gpu.shader_mmu.pagewalkLatency::mean          nan                       # Latency to complete the pagewalk
system.gpu.shader_mmu.pagewalkLatency::gmean          nan                       # Latency to complete the pagewalk
system.gpu.shader_mmu.pagewalkLatency::stdev          nan                       # Latency to complete the pagewalk
system.gpu.shader_mmu.pagewalkLatency::0            0                       # Latency to complete the pagewalk
system.gpu.shader_mmu.pagewalkLatency::1            0                       # Latency to complete the pagewalk
system.gpu.shader_mmu.pagewalkLatency::2            0                       # Latency to complete the pagewalk
system.gpu.shader_mmu.pagewalkLatency::3            0                       # Latency to complete the pagewalk
system.gpu.shader_mmu.pagewalkLatency::4            0                       # Latency to complete the pagewalk
system.gpu.shader_mmu.pagewalkLatency::5            0                       # Latency to complete the pagewalk
system.gpu.shader_mmu.pagewalkLatency::6            0                       # Latency to complete the pagewalk
system.gpu.shader_mmu.pagewalkLatency::7            0                       # Latency to complete the pagewalk
system.gpu.shader_mmu.pagewalkLatency::8            0                       # Latency to complete the pagewalk
system.gpu.shader_mmu.pagewalkLatency::9            0                       # Latency to complete the pagewalk
system.gpu.shader_mmu.pagewalkLatency::10            0                       # Latency to complete the pagewalk
system.gpu.shader_mmu.pagewalkLatency::11            0                       # Latency to complete the pagewalk
system.gpu.shader_mmu.pagewalkLatency::12            0                       # Latency to complete the pagewalk
system.gpu.shader_mmu.pagewalkLatency::13            0                       # Latency to complete the pagewalk
system.gpu.shader_mmu.pagewalkLatency::14            0                       # Latency to complete the pagewalk
system.gpu.shader_mmu.pagewalkLatency::15            0                       # Latency to complete the pagewalk
system.gpu.shader_mmu.pagewalkLatency::16            0                       # Latency to complete the pagewalk
system.gpu.shader_mmu.pagewalkLatency::17            0                       # Latency to complete the pagewalk
system.gpu.shader_mmu.pagewalkLatency::18            0                       # Latency to complete the pagewalk
system.gpu.shader_mmu.pagewalkLatency::19            0                       # Latency to complete the pagewalk
system.gpu.shader_mmu.pagewalkLatency::20            0                       # Latency to complete the pagewalk
system.gpu.shader_mmu.pagewalkLatency::21            0                       # Latency to complete the pagewalk
system.gpu.shader_mmu.pagewalkLatency::22            0                       # Latency to complete the pagewalk
system.gpu.shader_mmu.pagewalkLatency::23            0                       # Latency to complete the pagewalk
system.gpu.shader_mmu.pagewalkLatency::24            0                       # Latency to complete the pagewalk
system.gpu.shader_mmu.pagewalkLatency::25            0                       # Latency to complete the pagewalk
system.gpu.shader_mmu.pagewalkLatency::26            0                       # Latency to complete the pagewalk
system.gpu.shader_mmu.pagewalkLatency::27            0                       # Latency to complete the pagewalk
system.gpu.shader_mmu.pagewalkLatency::28            0                       # Latency to complete the pagewalk
system.gpu.shader_mmu.pagewalkLatency::29            0                       # Latency to complete the pagewalk
system.gpu.shader_mmu.pagewalkLatency::30            0                       # Latency to complete the pagewalk
system.gpu.shader_mmu.pagewalkLatency::31            0                       # Latency to complete the pagewalk
system.gpu.shader_mmu.pagewalkLatency::total            0                       # Latency to complete the pagewalk
system.gpu.kernels_started                          0                       # Number of kernels started
system.gpu.kernels_completed                        0                       # Number of kernels completed
system.gpu.ce.device_dtb.hits                       0                       # Number of hits in this TLB
system.gpu.ce.device_dtb.misses                     0                       # Number of misses in this TLB
system.gpu.ce.device_dtb.hitRate                  nan                       # Hit rate for this TLB
system.gpu.ce.host_dtb.hits                         0                       # Number of hits in this TLB
system.gpu.ce.host_dtb.misses                       0                       # Number of misses in this TLB
system.gpu.ce.host_dtb.hitRate                    nan                       # Hit rate for this TLB
system.gpu.ce.numOperations                         0                       # Number of copy/memset operations
system.gpu.ce.opBytesRead                           0                       # Number of copy bytes read
system.gpu.ce.opBytesWritten                        0                       # Number of copy/memset bytes written
system.gpu.ce.opTimeTicks                           0                       # Total time spent in copy/memset operations
system.gpu.shader_cores00.itb.hits                  0                       # Number of hits in this TLB
system.gpu.shader_cores00.itb.misses                0                       # Number of misses in this TLB
system.gpu.shader_cores00.itb.hitRate             nan                       # Hit rate for this TLB
system.gpu.shader_cores00.local_loads               0                       # Number of loads from local space
system.gpu.shader_cores00.local_stores              0                       # Number of stores to local space
system.gpu.shader_cores00.shared_loads              0                       # Number of loads from shared space
system.gpu.shader_cores00.shared_stores             0                       # Number of stores to shared space
system.gpu.shader_cores00.param_kernel_loads            0                       # Number of loads from kernel parameter space
system.gpu.shader_cores00.param_local_loads            0                       # Number of loads from local parameter space
system.gpu.shader_cores00.param_local_stores            0                       # Number of stores to local parameter space
system.gpu.shader_cores00.const_loads               0                       # Number of loads from constant space
system.gpu.shader_cores00.tex_loads                 0                       # Number of loads from texture space
system.gpu.shader_cores00.global_loads              0                       # Number of loads from global space
system.gpu.shader_cores00.global_stores             0                       # Number of stores to global space
system.gpu.shader_cores00.surf_loads                0                       # Number of loads from surface space
system.gpu.shader_cores00.generic_loads             0                       # Number of loads from generic spaces (global, shared, local)
system.gpu.shader_cores00.generic_stores            0                       # Number of stores to generic spaces (global, shared, local)
system.gpu.shader_cores00.inst_cache_requests            0                       # Number of instruction cache requests sent
system.gpu.shader_cores00.inst_cache_retries            0                       # Number of instruction cache retries
system.gpu.shader_cores00.inst_counts::0            0                       # Inst counts: 1: ALU, 2: MAD, 3: CTRL, 4: SFU, 5: MEM, 6: TEX, 7: NOP
system.gpu.shader_cores00.inst_counts::1            0                       # Inst counts: 1: ALU, 2: MAD, 3: CTRL, 4: SFU, 5: MEM, 6: TEX, 7: NOP
system.gpu.shader_cores00.inst_counts::2            0                       # Inst counts: 1: ALU, 2: MAD, 3: CTRL, 4: SFU, 5: MEM, 6: TEX, 7: NOP
system.gpu.shader_cores00.inst_counts::3            0                       # Inst counts: 1: ALU, 2: MAD, 3: CTRL, 4: SFU, 5: MEM, 6: TEX, 7: NOP
system.gpu.shader_cores00.inst_counts::4            0                       # Inst counts: 1: ALU, 2: MAD, 3: CTRL, 4: SFU, 5: MEM, 6: TEX, 7: NOP
system.gpu.shader_cores00.inst_counts::5            0                       # Inst counts: 1: ALU, 2: MAD, 3: CTRL, 4: SFU, 5: MEM, 6: TEX, 7: NOP
system.gpu.shader_cores00.inst_counts::6            0                       # Inst counts: 1: ALU, 2: MAD, 3: CTRL, 4: SFU, 5: MEM, 6: TEX, 7: NOP
system.gpu.shader_cores00.inst_counts::7            0                       # Inst counts: 1: ALU, 2: MAD, 3: CTRL, 4: SFU, 5: MEM, 6: TEX, 7: NOP
system.gpu.shader_cores00.activeCycles              0                       # Number of cycles this shader was executing a CTA
system.gpu.shader_cores00.notStalledCycles            0                       # Number of cycles this shader was actually executing at least one instance
system.gpu.shader_cores00.instInstances             0                       # Total instructions executed by all PEs in the core
system.gpu.shader_cores00.instPerCycle            nan                       # Instruction instances per cycle
system.gpu.shader_cores00.kernels_completed            0                       # Number of kernels completed
system.gpu.shader_cores00.lsq.data_tlb.hits            0                       # Number of hits in this TLB
system.gpu.shader_cores00.lsq.data_tlb.misses            0                       # Number of misses in this TLB
system.gpu.shader_cores00.lsq.data_tlb.hitRate          nan                       # Hit rate for this TLB
system.gpu.shader_cores00.lsq.warpInstBufActive::samples            0                       # Histogram of number of active warp inst buffers at a given time
system.gpu.shader_cores00.lsq.warpInstBufActive::mean          nan                       # Histogram of number of active warp inst buffers at a given time
system.gpu.shader_cores00.lsq.warpInstBufActive::gmean          nan                       # Histogram of number of active warp inst buffers at a given time
system.gpu.shader_cores00.lsq.warpInstBufActive::stdev          nan                       # Histogram of number of active warp inst buffers at a given time
system.gpu.shader_cores00.lsq.warpInstBufActive::0            0                       # Histogram of number of active warp inst buffers at a given time
system.gpu.shader_cores00.lsq.warpInstBufActive::1            0                       # Histogram of number of active warp inst buffers at a given time
system.gpu.shader_cores00.lsq.warpInstBufActive::2            0                       # Histogram of number of active warp inst buffers at a given time
system.gpu.shader_cores00.lsq.warpInstBufActive::3            0                       # Histogram of number of active warp inst buffers at a given time
[...]
system.ruby.ST.L2Cache.hit_type_mach_latency_hist |           0      0.00%      0.00% |           0      0.00%      0.00% |           0      0.00%      0.00% |           0      0.00%      0.00% |           0      0.00%      0.00% |           0      0.00%      0.00% |           0      0.00%      0.00% |           0      0.00%      0.00% |           1    100.00%    100.00% |           0      0.00%    100.00%
system.ruby.ST.L2Cache.hit_type_mach_latency_hist::total            1                      
system.ruby.ST.Directory.miss_type_mach_latency_hist::bucket_size           16                      
system.ruby.ST.Directory.miss_type_mach_latency_hist::max_bucket          159                      
system.ruby.ST.Directory.miss_type_mach_latency_hist::samples           70                      
system.ruby.ST.Directory.miss_type_mach_latency_hist::mean   116.642857                      
system.ruby.ST.Directory.miss_type_mach_latency_hist::gmean   114.677331                      
system.ruby.ST.Directory.miss_type_mach_latency_hist::stdev    22.693954                      
system.ruby.ST.Directory.miss_type_mach_latency_hist |           0      0.00%      0.00% |           0      0.00%      0.00% |           0      0.00%      0.00% |           0      0.00%      0.00% |           0      0.00%      0.00% |           0      0.00%      0.00% |          45     64.29%     64.29% |           0      0.00%     64.29% |          10     14.29%     78.57% |          15     21.43%    100.00%
system.ruby.ST.Directory.miss_type_mach_latency_hist::total           70                      
system.ruby.IFETCH.L1Cache.hit_type_mach_latency_hist::bucket_size            1                      
system.ruby.IFETCH.L1Cache.hit_type_mach_latency_hist::max_bucket            9                      
system.ruby.IFETCH.L1Cache.hit_type_mach_latency_hist::samples        29068                      
system.ruby.IFETCH.L1Cache.hit_type_mach_latency_hist::mean            1                      
system.ruby.IFETCH.L1Cache.hit_type_mach_latency_hist::gmean            1                      
system.ruby.IFETCH.L1Cache.hit_type_mach_latency_hist |           0      0.00%      0.00% |       29068    100.00%    100.00% |           0      0.00%    100.00% |           0      0.00%    100.00% |           0      0.00%    100.00% |           0      0.00%    100.00% |           0      0.00%    100.00% |           0      0.00%    100.00% |           0      0.00%    100.00% |           0      0.00%    100.00%
system.ruby.IFETCH.L1Cache.hit_type_mach_latency_hist::total        29068                      
system.ruby.IFETCH.L2Cache.hit_type_mach_latency_hist::bucket_size            2                      
system.ruby.IFETCH.L2Cache.hit_type_mach_latency_hist::max_bucket           19                      
system.ruby.IFETCH.L2Cache.hit_type_mach_latency_hist::samples           24                      
system.ruby.IFETCH.L2Cache.hit_type_mach_latency_hist::mean           16                      
system.ruby.IFETCH.L2Cache.hit_type_mach_latency_hist::gmean    16.000000                      
system.ruby.IFETCH.L2Cache.hit_type_mach_latency_hist |           0      0.00%      0.00% |           0      0.00%      0.00% |           0      0.00%      0.00% |           0      0.00%      0.00% |           0      0.00%      0.00% |           0      0.00%      0.00% |           0      0.00%      0.00% |           0      0.00%      0.00% |          24    100.00%    100.00% |           0      0.00%    100.00%
system.ruby.IFETCH.L2Cache.hit_type_mach_latency_hist::total           24                      
system.ruby.IFETCH.Directory.miss_type_mach_latency_hist::bucket_size           64                      
system.ruby.IFETCH.Directory.miss_type_mach_latency_hist::max_bucket          639                      
system.ruby.IFETCH.Directory.miss_type_mach_latency_hist::samples          295                      
system.ruby.IFETCH.Directory.miss_type_mach_latency_hist::mean   115.474576                      
system.ruby.IFETCH.Directory.miss_type_mach_latency_hist::gmean   112.928966                      
system.ruby.IFETCH.Directory.miss_type_mach_latency_hist::stdev    34.712598                      
system.ruby.IFETCH.Directory.miss_type_mach_latency_hist |           0      0.00%      0.00% |         196     66.44%     66.44% |          98     33.22%     99.66% |           0      0.00%     99.66% |           0      0.00%     99.66% |           0      0.00%     99.66% |           0      0.00%     99.66% |           0      0.00%     99.66% |           0      0.00%     99.66% |           1      0.34%    100.00%
system.ruby.IFETCH.Directory.miss_type_mach_latency_hist::total          295                      
system.ruby.RMW_Read.L1Cache.hit_type_mach_latency_hist::bucket_size            1                      
system.ruby.RMW_Read.L1Cache.hit_type_mach_latency_hist::max_bucket            9                      
system.ruby.RMW_Read.L1Cache.hit_type_mach_latency_hist::samples          214                      
system.ruby.RMW_Read.L1Cache.hit_type_mach_latency_hist::mean            1                      
system.ruby.RMW_Read.L1Cache.hit_type_mach_latency_hist::gmean            1                      
system.ruby.RMW_Read.L1Cache.hit_type_mach_latency_hist |           0      0.00%      0.00% |         214    100.00%    100.00% |           0      0.00%    100.00% |           0      0.00%    100.00% |           0      0.00%    100.00% |           0      0.00%    100.00% |           0      0.00%    100.00% |           0      0.00%    100.00% |           0      0.00%    100.00% |           0      0.00%    100.00%
system.ruby.RMW_Read.L1Cache.hit_type_mach_latency_hist::total          214                      
system.ruby.RMW_Read.Directory.miss_type_mach_latency_hist::bucket_size           16                      
system.ruby.RMW_Read.Directory.miss_type_mach_latency_hist::max_bucket          159                      
system.ruby.RMW_Read.Directory.miss_type_mach_latency_hist::samples            1                      
system.ruby.RMW_Read.Directory.miss_type_mach_latency_hist::mean          156                      
system.ruby.RMW_Read.Directory.miss_type_mach_latency_hist::gmean          156                      
system.ruby.RMW_Read.Directory.miss_type_mach_latency_hist::stdev          nan                      
system.ruby.RMW_Read.Directory.miss_type_mach_latency_hist |           0      0.00%      0.00% |           0      0.00%      0.00% |           0      0.00%      0.00% |           0      0.00%      0.00% |           0      0.00%      0.00% |           0      0.00%      0.00% |           0      0.00%      0.00% |           0      0.00%      0.00% |           0      0.00%      0.00% |           1    100.00%    100.00%
system.ruby.RMW_Read.Directory.miss_type_mach_latency_hist::total            1                      
system.ruby.Directory_Controller.GETX              71      0.00%      0.00%
system.ruby.Directory_Controller.GETS             377      0.00%      0.00%
system.ruby.Directory_Controller.UnblockM          448      0.00%      0.00%
system.ruby.Directory_Controller.Memory_Data          448      0.00%      0.00%
system.ruby.Directory_Controller.E.GETX            71      0.00%      0.00%
system.ruby.Directory_Controller.E.GETS           377      0.00%      0.00%
system.ruby.Directory_Controller.NO_B.UnblockM          448      0.00%      0.00%
system.ruby.Directory_Controller.NO_B_W.Memory_Data          448      0.00%      0.00%
system.ruby.L1Cache_Controller.Load      |        4936    100.00%    100.00% |           0      0.00%    100.00% |           0      0.00%    100.00% |           0      0.00%    100.00% |           0      0.00%    100.00%
system.ruby.L1Cache_Controller.Load::total         4936                      
system.ruby.L1Cache_Controller.Ifetch    |       29387    100.00%    100.00% |           0      0.00%    100.00% |           0      0.00%    100.00% |           0      0.00%    100.00% |           0      0.00%    100.00%
system.ruby.L1Cache_Controller.Ifetch::total        29387                      
system.ruby.L1Cache_Controller.Store     |        3886    100.00%    100.00% |           0      0.00%    100.00% |           0      0.00%    100.00% |           0      0.00%    100.00% |           0      0.00%    100.00%
system.ruby.L1Cache_Controller.Store::total         3886                      
system.ruby.L1Cache_Controller.L1_to_L2  |         142    100.00%    100.00% |           0      0.00%    100.00% |           0      0.00%    100.00% |           0      0.00%    100.00% |           0      0.00%    100.00%
system.ruby.L1Cache_Controller.L1_to_L2::total          142                      
system.ruby.L1Cache_Controller.Trigger_L2_to_L1D |          12    100.00%    100.00% |           0      0.00%    100.00% |           0      0.00%    100.00% |           0      0.00%    100.00% |           0      0.00%    100.00%
system.ruby.L1Cache_Controller.Trigger_L2_to_L1D::total           12                      
system.ruby.L1Cache_Controller.Trigger_L2_to_L1I |          24    100.00%    100.00% |           0      0.00%    100.00% |           0      0.00%    100.00% |           0      0.00%    100.00% |           0      0.00%    100.00%
system.ruby.L1Cache_Controller.Trigger_L2_to_L1I::total           24                      
system.ruby.L1Cache_Controller.Complete_L2_to_L1 |          36    100.00%    100.00% |           0      0.00%    100.00% |           0      0.00%    100.00% |           0      0.00%    100.00% |           0      0.00%    100.00%
system.ruby.L1Cache_Controller.Complete_L2_to_L1::total           36                      
system.ruby.L1Cache_Controller.Other_GETX |           0      0.00%      0.00% |          71     25.00%     25.00% |          71     25.00%     50.00% |          71     25.00%     75.00% |          71     25.00%    100.00%
system.ruby.L1Cache_Controller.Other_GETX::total          284                      
system.ruby.L1Cache_Controller.Other_GETS |           0      0.00%      0.00% |         377     25.00%     25.00% |         377     25.00%     50.00% |         377     25.00%     75.00% |         377     25.00%    100.00%
system.ruby.L1Cache_Controller.Other_GETS::total         1508                      
system.ruby.L1Cache_Controller.Ack       |        2240    100.00%    100.00% |           0      0.00%    100.00% |           0      0.00%    100.00% |           0      0.00%    100.00% |           0      0.00%    100.00%
system.ruby.L1Cache_Controller.Ack::total         2240                      
system.ruby.L1Cache_Controller.Exclusive_Data |         448    100.00%    100.00% |           0      0.00%    100.00% |           0      0.00%    100.00% |           0      0.00%    100.00% |           0      0.00%    100.00%
system.ruby.L1Cache_Controller.Exclusive_Data::total          448                      
system.ruby.L1Cache_Controller.All_acks_no_sharers |         448    100.00%    100.00% |           0      0.00%    100.00% |           0      0.00%    100.00% |           0      0.00%    100.00% |           0      0.00%    100.00%
system.ruby.L1Cache_Controller.All_acks_no_sharers::total          448                      
system.ruby.L1Cache_Controller.I.Load    |          82    100.00%    100.00% |           0      0.00%    100.00% |           0      0.00%    100.00% |           0      0.00%    100.00% |           0      0.00%    100.00%
system.ruby.L1Cache_Controller.I.Load::total           82                      
system.ruby.L1Cache_Controller.I.Ifetch  |         295    100.00%    100.00% |           0      0.00%    100.00% |           0      0.00%    100.00% |           0      0.00%    100.00% |           0      0.00%    100.00%
system.ruby.L1Cache_Controller.I.Ifetch::total          295                      
system.ruby.L1Cache_Controller.I.Store   |          71    100.00%    100.00% |           0      0.00%    100.00% |           0      0.00%    100.00% |           0      0.00%    100.00% |           0      0.00%    100.00%
system.ruby.L1Cache_Controller.I.Store::total           71                      
system.ruby.L1Cache_Controller.I.Other_GETX |           0      0.00%      0.00% |          71     25.00%     25.00% |          71     25.00%     50.00% |          71     25.00%     75.00% |          71     25.00%    100.00%
system.ruby.L1Cache_Controller.I.Other_GETX::total          284                      
system.ruby.L1Cache_Controller.I.Other_GETS |           0      0.00%      0.00% |         377     25.00%     25.00% |         377     25.00%     50.00% |         377     25.00%     75.00% |         377     25.00%    100.00%
system.ruby.L1Cache_Controller.I.Other_GETS::total         1508                      
system.ruby.L1Cache_Controller.M.Load    |         941    100.00%    100.00% |           0      0.00%    100.00% |           0      0.00%    100.00% |           0      0.00%    100.00% |           0      0.00%    100.00%
system.ruby.L1Cache_Controller.M.Load::total          941                      
system.ruby.L1Cache_Controller.M.Ifetch  |       29068    100.00%    100.00% |           0      0.00%    100.00% |           0      0.00%    100.00% |           0      0.00%    100.00% |           0      0.00%    100.00%
system.ruby.L1Cache_Controller.M.Ifetch::total        29068                      
system.ruby.L1Cache_Controller.M.Store   |          22    100.00%    100.00% |           0      0.00%    100.00% |           0      0.00%    100.00% |           0      0.00%    100.00% |           0      0.00%    100.00%
system.ruby.L1Cache_Controller.M.Store::total           22                      
system.ruby.L1Cache_Controller.M.L1_to_L2 |         124    100.00%    100.00% |           0      0.00%    100.00% |           0      0.00%    100.00% |           0      0.00%    100.00% |           0      0.00%    100.00%
system.ruby.L1Cache_Controller.M.L1_to_L2::total          124                      
system.ruby.L1Cache_Controller.M.Trigger_L2_to_L1D |           4    100.00%    100.00% |           0      0.00%    100.00% |           0      0.00%    100.00% |           0      0.00%    100.00% |           0      0.00%    100.00%
system.ruby.L1Cache_Controller.M.Trigger_L2_to_L1D::total            4                      
system.ruby.L1Cache_Controller.M.Trigger_L2_to_L1I |          24    100.00%    100.00% |           0      0.00%    100.00% |           0      0.00%    100.00% |           0      0.00%    100.00% |           0      0.00%    100.00%
system.ruby.L1Cache_Controller.M.Trigger_L2_to_L1I::total           24                      
system.ruby.L1Cache_Controller.MM.Load   |        3902    100.00%    100.00% |           0      0.00%    100.00% |           0      0.00%    100.00% |           0      0.00%    100.00% |           0      0.00%    100.00%
system.ruby.L1Cache_Controller.MM.Load::total         3902                      
system.ruby.L1Cache_Controller.MM.Store  |        3792    100.00%    100.00% |           0      0.00%    100.00% |           0      0.00%    100.00% |           0      0.00%    100.00% |           0      0.00%    100.00%
system.ruby.L1Cache_Controller.MM.Store::total         3792                      
system.ruby.L1Cache_Controller.MM.L1_to_L2 |          18    100.00%    100.00% |           0      0.00%    100.00% |           0      0.00%    100.00% |           0      0.00%    100.00% |           0      0.00%    100.00%
system.ruby.L1Cache_Controller.MM.L1_to_L2::total           18                      
system.ruby.L1Cache_Controller.MM.Trigger_L2_to_L1D |           8    100.00%    100.00% |           0      0.00%    100.00% |           0      0.00%    100.00% |           0      0.00%    100.00% |           0      0.00%    100.00%
system.ruby.L1Cache_Controller.MM.Trigger_L2_to_L1D::total            8                      
system.ruby.L1Cache_Controller.MR.Load   |           4    100.00%    100.00% |           0      0.00%    100.00% |           0      0.00%    100.00% |           0      0.00%    100.00% |           0      0.00%    100.00%
system.ruby.L1Cache_Controller.MR.Load::total            4                      
system.ruby.L1Cache_Controller.MR.Ifetch |          24    100.00%    100.00% |           0      0.00%    100.00% |           0      0.00%    100.00% |           0      0.00%    100.00% |           0      0.00%    100.00%
system.ruby.L1Cache_Controller.MR.Ifetch::total           24                      
system.ruby.L1Cache_Controller.MMR.Load  |           7    100.00%    100.00% |           0      0.00%    100.00% |           0      0.00%    100.00% |           0      0.00%    100.00% |           0      0.00%    100.00%
system.ruby.L1Cache_Controller.MMR.Load::total            7                      
system.ruby.L1Cache_Controller.MMR.Store |           1    100.00%    100.00% |           0      0.00%    100.00% |           0      0.00%    100.00% |           0      0.00%    100.00% |           0      0.00%    100.00%
system.ruby.L1Cache_Controller.MMR.Store::total            1                      
system.ruby.L1Cache_Controller.IM.Ack    |         355    100.00%    100.00% |           0      0.00%    100.00% |           0      0.00%    100.00% |           0      0.00%    100.00% |           0      0.00%    100.00%
system.ruby.L1Cache_Controller.IM.Ack::total          355                      
system.ruby.L1Cache_Controller.IM.Exclusive_Data |          71    100.00%    100.00% |           0      0.00%    100.00% |           0      0.00%    100.00% |           0      0.00%    100.00% |           0      0.00%    100.00%
system.ruby.L1Cache_Controller.IM.Exclusive_Data::total           71                      
system.ruby.L1Cache_Controller.M_W.All_acks_no_sharers |         377    100.00%    100.00% |           0      0.00%    100.00% |           0      0.00%    100.00% |           0      0.00%    100.00% |           0      0.00%    100.00%
system.ruby.L1Cache_Controller.M_W.All_acks_no_sharers::total          377                      
system.ruby.L1Cache_Controller.MM_W.All_acks_no_sharers |          71    100.00%    100.00% |           0      0.00%    100.00% |           0      0.00%    100.00% |           0      0.00%    100.00% |           0      0.00%    100.00%
system.ruby.L1Cache_Controller.MM_W.All_acks_no_sharers::total           71                      
system.ruby.L1Cache_Controller.IS.Ack    |        1885    100.00%    100.00% |           0      0.00%    100.00% |           0      0.00%    100.00% |           0      0.00%    100.00% |           0      0.00%    100.00%
system.ruby.L1Cache_Controller.IS.Ack::total         1885                      
system.ruby.L1Cache_Controller.IS.Exclusive_Data |         377    100.00%    100.00% |           0      0.00%    100.00% |           0      0.00%    100.00% |           0      0.00%    100.00% |           0      0.00%    100.00%
system.ruby.L1Cache_Controller.IS.Exclusive_Data::total          377                      
system.ruby.L1Cache_Controller.MT.Complete_L2_to_L1 |          28    100.00%    100.00% |           0      0.00%    100.00% |           0      0.00%    100.00% |           0      0.00%    100.00% |           0      0.00%    100.00%
system.ruby.L1Cache_Controller.MT.Complete_L2_to_L1::total           28                      
system.ruby.L1Cache_Controller.MMT.Complete_L2_to_L1 |           8    100.00%    100.00% |           0      0.00%    100.00% |           0      0.00%    100.00% |           0      0.00%    100.00% |           0      0.00%    100.00%
system.ruby.L1Cache_Controller.MMT.Complete_L2_to_L1::total            8                      
system.ruby.GPUL2Cache_Controller.Other_GETX           71      0.00%      0.00%
system.ruby.GPUL2Cache_Controller.Other_GETS          377      0.00%      0.00%
system.ruby.GPUL2Cache_Controller.I.Other_GETX           71      0.00%      0.00%
system.ruby.GPUL2Cache_Controller.I.Other_GETS          377      0.00%      0.00%

---------- End Simulation Statistics   ----------
