
---------- Begin Simulation Statistics ----------
sim_seconds                                  0.394424                       # Number of seconds simulated
sim_ticks                                394424109000                       # Number of ticks simulated
final_tick                               394638693500                       # Number of ticks from beginning of simulation (restored from checkpoints and never reset)
sim_freq                                 1000000000000                       # Frequency of simulated ticks
host_inst_rate                                 106477                       # Simulator instruction rate (inst/s)
host_op_rate                                   207078                       # Simulator op (including micro ops) rate (op/s)
host_tick_rate                              209880938                       # Simulator tick rate (ticks/s)
host_mem_usage                                1565448                       # Number of bytes of host memory used
host_seconds                                  1879.28                       # Real time elapsed on the host
sim_insts                                   200100001                       # Number of instructions simulated
sim_ops                                     389157160                       # Number of ops (including micro ops) simulated
system.voltage_domain.voltage                       1                       # Voltage in Volts
system.clk_domain.clock                          1000                       # Clock period in ticks
system.mem_ctrls.bytes_read::ruby.dir_cntrl0    103964288                       # Number of bytes read from this memory
system.mem_ctrls.bytes_read::total          103964288                       # Number of bytes read from this memory
system.mem_ctrls.bytes_written::ruby.dir_cntrl0     59017472                       # Number of bytes written to this memory
system.mem_ctrls.bytes_written::total        59017472                       # Number of bytes written to this memory
system.mem_ctrls.num_reads::ruby.dir_cntrl0       812221                       # Number of read requests responded to by this memory
system.mem_ctrls.num_reads::total              812221                       # Number of read requests responded to by this memory
system.mem_ctrls.num_writes::ruby.dir_cntrl0       461074                       # Number of write requests responded to by this memory
system.mem_ctrls.num_writes::total             461074                       # Number of write requests responded to by this memory
system.mem_ctrls.bw_read::ruby.dir_cntrl0    263585023                       # Total read bandwidth from this memory (bytes/s)
system.mem_ctrls.bw_read::total             263585023                       # Total read bandwidth from this memory (bytes/s)
system.mem_ctrls.bw_write::ruby.dir_cntrl0    149629474                       # Write bandwidth from this memory (bytes/s)
system.mem_ctrls.bw_write::total            149629474                       # Write bandwidth from this memory (bytes/s)
system.mem_ctrls.bw_total::ruby.dir_cntrl0    413214497                       # Total bandwidth to/from this memory (bytes/s)
system.mem_ctrls.bw_total::total            413214497                       # Total bandwidth to/from this memory (bytes/s)
system.mem_ctrls.readReqs                      812221                       # Number of read requests accepted
system.mem_ctrls.writeReqs                     461074                       # Number of write requests accepted
system.mem_ctrls.readBursts                   1624442                       # Number of DRAM read bursts, including those serviced by the write queue
system.mem_ctrls.writeBursts                   922148                       # Number of DRAM write bursts, including those merged in the write queue
system.mem_ctrls.bytesReadDRAM              103879104                       # Total number of bytes read from DRAM
system.mem_ctrls.bytesReadWrQ                   85184                       # Total number of bytes read from write queue
system.mem_ctrls.bytesWritten                58992448                       # Total number of bytes written to DRAM
system.mem_ctrls.bytesReadSys               103964288                       # Total read bytes from the system interface side
system.mem_ctrls.bytesWrittenSys             59017472                       # Total written bytes from the system interface side
system.mem_ctrls.servicedByWrQ                   1331                       # Number of DRAM read bursts serviced by the write queue
system.mem_ctrls.mergedWrBursts                   367                       # Number of DRAM write bursts merged with an existing one
system.mem_ctrls.neitherReadNorWriteReqs            0                       # Number of requests that are neither read nor write
system.mem_ctrls.perBankRdBursts::0            100928                       # Per bank write bursts
system.mem_ctrls.perBankRdBursts::1            101800                       # Per bank write bursts
system.mem_ctrls.perBankRdBursts::2            100932                       # Per bank write bursts
system.mem_ctrls.perBankRdBursts::3            100476                       # Per bank write bursts
system.mem_ctrls.perBankRdBursts::4            101030                       # Per bank write bursts
system.mem_ctrls.perBankRdBursts::5            101466                       # Per bank write bursts
system.mem_ctrls.perBankRdBursts::6            102104                       # Per bank write bursts
system.mem_ctrls.perBankRdBursts::7            101576                       # Per bank write bursts
system.mem_ctrls.perBankRdBursts::8            102628                       # Per bank write bursts
system.mem_ctrls.perBankRdBursts::9            102966                       # Per bank write bursts
system.mem_ctrls.perBankRdBursts::10           101516                       # Per bank write bursts
system.mem_ctrls.perBankRdBursts::11           101086                       # Per bank write bursts
system.mem_ctrls.perBankRdBursts::12           102315                       # Per bank write bursts
system.mem_ctrls.perBankRdBursts::13           101010                       # Per bank write bursts
system.mem_ctrls.perBankRdBursts::14           100732                       # Per bank write bursts
system.mem_ctrls.perBankRdBursts::15           100546                       # Per bank write bursts
system.mem_ctrls.perBankWrBursts::0             57396                       # Per bank write bursts
system.mem_ctrls.perBankWrBursts::1             57268                       # Per bank write bursts
system.mem_ctrls.perBankWrBursts::2             57240                       # Per bank write bursts
system.mem_ctrls.perBankWrBursts::3             57264                       # Per bank write bursts
system.mem_ctrls.perBankWrBursts::4             57476                       # Per bank write bursts
system.mem_ctrls.perBankWrBursts::5             57604                       # Per bank write bursts
system.mem_ctrls.perBankWrBursts::6             57678                       # Per bank write bursts
system.mem_ctrls.perBankWrBursts::7             58425                       # Per bank write bursts
system.mem_ctrls.perBankWrBursts::8             57638                       # Per bank write bursts
system.mem_ctrls.perBankWrBursts::9             57620                       # Per bank write bursts
system.mem_ctrls.perBankWrBursts::10            57392                       # Per bank write bursts
system.mem_ctrls.perBankWrBursts::11            57866                       # Per bank write bursts
system.mem_ctrls.perBankWrBursts::12            58386                       # Per bank write bursts
system.mem_ctrls.perBankWrBursts::13            57600                       # Per bank write bursts
system.mem_ctrls.perBankWrBursts::14            57398                       # Per bank write bursts
system.mem_ctrls.perBankWrBursts::15            57506                       # Per bank write bursts
system.mem_ctrls.numRdRetry                    136689                       # Number of times read queue was full causing retry
system.mem_ctrls.numWrRetry                     14977                       # Number of times write queue was full causing retry
system.mem_ctrls.totGap                  394419481500                       # Total gap between requests
system.mem_ctrls.readPktSize::0                     0                       # Read request sizes (log2)
system.mem_ctrls.readPktSize::1                     0                       # Read request sizes (log2)
system.mem_ctrls.readPktSize::2                     0                       # Read request sizes (log2)
system.mem_ctrls.readPktSize::3                     0                       # Read request sizes (log2)
system.mem_ctrls.readPktSize::4                     0                       # Read request sizes (log2)
system.mem_ctrls.readPktSize::5                     0                       # Read request sizes (log2)
system.mem_ctrls.readPktSize::6               1624442                       # Read request sizes (log2)
system.mem_ctrls.writePktSize::0                    0                       # Write request sizes (log2)
system.mem_ctrls.writePktSize::1                    0                       # Write request sizes (log2)
system.mem_ctrls.writePktSize::2                    0                       # Write request sizes (log2)
system.mem_ctrls.writePktSize::3                    0                       # Write request sizes (log2)
system.mem_ctrls.writePktSize::4                    0                       # Write request sizes (log2)
system.mem_ctrls.writePktSize::5                    0                       # Write request sizes (log2)
system.mem_ctrls.writePktSize::6               922148                       # Write request sizes (log2)
system.mem_ctrls.rdQLenPdf::0                  427047                       # What read queue length does an incoming req see
system.mem_ctrls.rdQLenPdf::1                  429208                       # What read queue length does an incoming req see
system.mem_ctrls.rdQLenPdf::2                   27722                       # What read queue length does an incoming req see
system.mem_ctrls.rdQLenPdf::3                   34388                       # What read queue length does an incoming req see
system.mem_ctrls.rdQLenPdf::4                   51173                       # What read queue length does an incoming req see
system.mem_ctrls.rdQLenPdf::5                   69195                       # What read queue length does an incoming req see
system.mem_ctrls.rdQLenPdf::6                   76865                       # What read queue length does an incoming req see
system.mem_ctrls.rdQLenPdf::7                   70686                       # What read queue length does an incoming req see
system.mem_ctrls.rdQLenPdf::8                   61601                       # What read queue length does an incoming req see
system.mem_ctrls.rdQLenPdf::9                   52210                       # What read queue length does an incoming req see
system.mem_ctrls.rdQLenPdf::10                  44926                       # What read queue length does an incoming req see
system.mem_ctrls.rdQLenPdf::11                  42627                       # What read queue length does an incoming req see
system.mem_ctrls.rdQLenPdf::12                  32985                       # What read queue length does an incoming req see
system.mem_ctrls.rdQLenPdf::13                  26246                       # What read queue length does an incoming req see
system.mem_ctrls.rdQLenPdf::14                  15760                       # What read queue length does an incoming req see
system.mem_ctrls.rdQLenPdf::15                  13706                       # What read queue length does an incoming req see
system.mem_ctrls.rdQLenPdf::16                    701                       # What read queue length does an incoming req see
system.mem_ctrls.rdQLenPdf::17                    641                       # What read queue length does an incoming req see
system.mem_ctrls.rdQLenPdf::18                    488                       # What read queue length does an incoming req see
system.mem_ctrls.rdQLenPdf::19                    456                       # What read queue length does an incoming req see
system.mem_ctrls.rdQLenPdf::20                    336                       # What read queue length does an incoming req see
system.mem_ctrls.rdQLenPdf::21                    319                       # What read queue length does an incoming req see
system.mem_ctrls.rdQLenPdf::22                    352                       # What read queue length does an incoming req see
system.mem_ctrls.rdQLenPdf::23                    356                       # What read queue length does an incoming req see
system.mem_ctrls.rdQLenPdf::24                    403                       # What read queue length does an incoming req see
system.mem_ctrls.rdQLenPdf::25                    450                       # What read queue length does an incoming req see
system.mem_ctrls.rdQLenPdf::26                    625                       # What read queue length does an incoming req see
system.mem_ctrls.rdQLenPdf::27                    667                       # What read queue length does an incoming req see
system.mem_ctrls.rdQLenPdf::28                    863                       # What read queue length does an incoming req see
system.mem_ctrls.rdQLenPdf::29                    945                       # What read queue length does an incoming req see
system.mem_ctrls.rdQLenPdf::30                  69710                       # What read queue length does an incoming req see
system.mem_ctrls.rdQLenPdf::31                  69454                       # What read queue length does an incoming req see
system.mem_ctrls.wrQLenPdf::0                       1                       # What write queue length does an incoming req see
system.mem_ctrls.wrQLenPdf::1                       1                       # What write queue length does an incoming req see
system.mem_ctrls.wrQLenPdf::2                       1                       # What write queue length does an incoming req see
system.mem_ctrls.wrQLenPdf::3                       1                       # What write queue length does an incoming req see
system.mem_ctrls.wrQLenPdf::4                       1                       # What write queue length does an incoming req see
system.mem_ctrls.wrQLenPdf::5                       1                       # What write queue length does an incoming req see
system.mem_ctrls.wrQLenPdf::6                       1                       # What write queue length does an incoming req see
system.mem_ctrls.wrQLenPdf::7                       1                       # What write queue length does an incoming req see
system.mem_ctrls.wrQLenPdf::8                       1                       # What write queue length does an incoming req see
system.mem_ctrls.wrQLenPdf::9                       1                       # What write queue length does an incoming req see
system.mem_ctrls.wrQLenPdf::10                      1                       # What write queue length does an incoming req see
system.mem_ctrls.wrQLenPdf::11                      1                       # What write queue length does an incoming req see
system.mem_ctrls.wrQLenPdf::12                      1                       # What write queue length does an incoming req see
system.mem_ctrls.wrQLenPdf::13                      1                       # What write queue length does an incoming req see
system.mem_ctrls.wrQLenPdf::14                      1                       # What write queue length does an incoming req see
system.mem_ctrls.wrQLenPdf::15                   1330                       # What write queue length does an incoming req see
system.mem_ctrls.wrQLenPdf::16                   1421                       # What write queue length does an incoming req see
system.mem_ctrls.wrQLenPdf::17                  28556                       # What write queue length does an incoming req see
system.mem_ctrls.wrQLenPdf::18                  30868                       # What write queue length does an incoming req see
system.mem_ctrls.wrQLenPdf::19                  31468                       # What write queue length does an incoming req see
system.mem_ctrls.wrQLenPdf::20                  31918                       # What write queue length does an incoming req see
system.mem_ctrls.wrQLenPdf::21                  34544                       # What write queue length does an incoming req see
system.mem_ctrls.wrQLenPdf::22                  37362                       # What write queue length does an incoming req see
system.mem_ctrls.wrQLenPdf::23                  43210                       # What write queue length does an incoming req see
system.mem_ctrls.wrQLenPdf::24                  46168                       # What write queue length does an incoming req see
system.mem_ctrls.wrQLenPdf::25                  48464                       # What write queue length does an incoming req see
system.mem_ctrls.wrQLenPdf::26                  50483                       # What write queue length does an incoming req see
system.mem_ctrls.wrQLenPdf::27                  52619                       # What write queue length does an incoming req see
system.mem_ctrls.wrQLenPdf::28                  54289                       # What write queue length does an incoming req see
system.mem_ctrls.wrQLenPdf::29                  55965                       # What write queue length does an incoming req see
system.mem_ctrls.wrQLenPdf::30                  55523                       # What write queue length does an incoming req see
system.mem_ctrls.wrQLenPdf::31                  55560                       # What write queue length does an incoming req see
system.mem_ctrls.wrQLenPdf::32                  55628                       # What write queue length does an incoming req see
system.mem_ctrls.wrQLenPdf::33                  18036                       # What write queue length does an incoming req see
system.mem_ctrls.wrQLenPdf::34                   9585                       # What write queue length does an incoming req see
system.mem_ctrls.wrQLenPdf::35                   6939                       # What write queue length does an incoming req see
system.mem_ctrls.wrQLenPdf::36                   5656                       # What write queue length does an incoming req see
system.mem_ctrls.wrQLenPdf::37                   4567                       # What write queue length does an incoming req see
system.mem_ctrls.wrQLenPdf::38                   3853                       # What write queue length does an incoming req see
system.mem_ctrls.wrQLenPdf::39                   3517                       # What write queue length does an incoming req see
system.mem_ctrls.wrQLenPdf::40                   3210                       # What write queue length does an incoming req see
system.mem_ctrls.wrQLenPdf::41                   3264                       # What write queue length does an incoming req see
system.mem_ctrls.wrQLenPdf::42                   3053                       # What write queue length does an incoming req see
system.mem_ctrls.wrQLenPdf::43                   3294                       # What write queue length does an incoming req see
system.mem_ctrls.wrQLenPdf::44                   3208                       # What write queue length does an incoming req see
system.mem_ctrls.wrQLenPdf::45                   3843                       # What write queue length does an incoming req see
system.mem_ctrls.wrQLenPdf::46                   3904                       # What write queue length does an incoming req see
system.mem_ctrls.wrQLenPdf::47                   5063                       # What write queue length does an incoming req see
system.mem_ctrls.wrQLenPdf::48                   5215                       # What write queue length does an incoming req see
system.mem_ctrls.wrQLenPdf::49                   6658                       # What write queue length does an incoming req see
system.mem_ctrls.wrQLenPdf::50                   7029                       # What write queue length does an incoming req see
system.mem_ctrls.wrQLenPdf::51                   8530                       # What write queue length does an incoming req see
system.mem_ctrls.wrQLenPdf::52                   8869                       # What write queue length does an incoming req see
system.mem_ctrls.wrQLenPdf::53                  10848                       # What write queue length does an incoming req see
system.mem_ctrls.wrQLenPdf::54                  12507                       # What write queue length does an incoming req see
system.mem_ctrls.wrQLenPdf::55                  11174                       # What write queue length does an incoming req see
system.mem_ctrls.wrQLenPdf::56                  10437                       # What write queue length does an incoming req see
system.mem_ctrls.wrQLenPdf::57                   7757                       # What write queue length does an incoming req see
system.mem_ctrls.wrQLenPdf::58                   6691                       # What write queue length does an incoming req see
system.mem_ctrls.wrQLenPdf::59                   4641                       # What write queue length does an incoming req see
system.mem_ctrls.wrQLenPdf::60                   3969                       # What write queue length does an incoming req see
system.mem_ctrls.wrQLenPdf::61                   2793                       # What write queue length does an incoming req see
system.mem_ctrls.wrQLenPdf::62                  10036                       # What write queue length does an incoming req see
system.mem_ctrls.wrQLenPdf::63                   8244                       # What write queue length does an incoming req see
system.mem_ctrls.bytesPerActivate::samples       344257                       # Bytes accessed per row activation
system.mem_ctrls.bytesPerActivate::mean    473.113331                       # Bytes accessed per row activation
system.mem_ctrls.bytesPerActivate::gmean   324.969137                       # Bytes accessed per row activation
system.mem_ctrls.bytesPerActivate::stdev   378.826151                       # Bytes accessed per row activation
system.mem_ctrls.bytesPerActivate::0-127         2683      0.78%      0.78% # Bytes accessed per row activation
system.mem_ctrls.bytesPerActivate::128-255       139268     40.45%     41.23% # Bytes accessed per row activation
system.mem_ctrls.bytesPerActivate::256-383        38036     11.05%     52.28% # Bytes accessed per row activation
system.mem_ctrls.bytesPerActivate::384-511        27855      8.09%     60.37% # Bytes accessed per row activation
system.mem_ctrls.bytesPerActivate::512-639        14937      4.34%     64.71% # Bytes accessed per row activation
system.mem_ctrls.bytesPerActivate::640-767        12361      3.59%     68.30% # Bytes accessed per row activation
system.mem_ctrls.bytesPerActivate::768-895         9376      2.72%     71.03% # Bytes accessed per row activation
system.mem_ctrls.bytesPerActivate::896-1023         9077      2.64%     73.66% # Bytes accessed per row activation
system.mem_ctrls.bytesPerActivate::1024-1151        90664     26.34%    100.00% # Bytes accessed per row activation
system.mem_ctrls.bytesPerActivate::total       344257                       # Bytes accessed per row activation
system.mem_ctrls.rdPerTurnAround::samples        57406                       # Reads before turning the bus around for writes
system.mem_ctrls.rdPerTurnAround::mean      27.522715                       # Reads before turning the bus around for writes
system.mem_ctrls.rdPerTurnAround::gmean     20.957141                       # Reads before turning the bus around for writes
system.mem_ctrls.rdPerTurnAround::stdev    278.433752                       # Reads before turning the bus around for writes
system.mem_ctrls.rdPerTurnAround::0-4095        57404    100.00%    100.00% # Reads before turning the bus around for writes
system.mem_ctrls.rdPerTurnAround::4096-8191            1      0.00%    100.00% # Reads before turning the bus around for writes
system.mem_ctrls.rdPerTurnAround::65536-69631            1      0.00%    100.00% # Reads before turning the bus around for writes
system.mem_ctrls.rdPerTurnAround::total         57406                       # Reads before turning the bus around for writes
system.mem_ctrls.wrPerTurnAround::samples        57406                       # Writes before turning the bus around for reads
system.mem_ctrls.wrPerTurnAround::mean      16.056806                       # Writes before turning the bus around for reads
system.mem_ctrls.wrPerTurnAround::gmean     16.052298                       # Writes before turning the bus around for reads
system.mem_ctrls.wrPerTurnAround::stdev      0.424446                       # Writes before turning the bus around for reads
system.mem_ctrls.wrPerTurnAround::16            55947     97.46%     97.46% # Writes before turning the bus around for reads
system.mem_ctrls.wrPerTurnAround::17               25      0.04%     97.50% # Writes before turning the bus around for reads
system.mem_ctrls.wrPerTurnAround::18             1326      2.31%     99.81% # Writes before turning the bus around for reads
system.mem_ctrls.wrPerTurnAround::19               62      0.11%     99.92% # Writes before turning the bus around for reads
system.mem_ctrls.wrPerTurnAround::20               14      0.02%     99.94% # Writes before turning the bus around for reads
system.mem_ctrls.wrPerTurnAround::21                5      0.01%     99.95% # Writes before turning the bus around for reads
system.mem_ctrls.wrPerTurnAround::22                2      0.00%     99.96% # Writes before turning the bus around for reads
system.mem_ctrls.wrPerTurnAround::23                1      0.00%     99.96% # Writes before turning the bus around for reads
system.mem_ctrls.wrPerTurnAround::24                9      0.02%     99.97% # Writes before turning the bus around for reads
system.mem_ctrls.wrPerTurnAround::25                2      0.00%     99.98% # Writes before turning the bus around for reads
system.mem_ctrls.wrPerTurnAround::26                1      0.00%     99.98% # Writes before turning the bus around for reads
system.mem_ctrls.wrPerTurnAround::28                1      0.00%     99.98% # Writes before turning the bus around for reads
system.mem_ctrls.wrPerTurnAround::29                1      0.00%     99.98% # Writes before turning the bus around for reads
system.mem_ctrls.wrPerTurnAround::31                1      0.00%     99.98% # Writes before turning the bus around for reads
system.mem_ctrls.wrPerTurnAround::32                3      0.01%     99.99% # Writes before turning the bus around for reads
system.mem_ctrls.wrPerTurnAround::33                2      0.00%     99.99% # Writes before turning the bus around for reads
system.mem_ctrls.wrPerTurnAround::34                2      0.00%    100.00% # Writes before turning the bus around for reads
system.mem_ctrls.wrPerTurnAround::36                2      0.00%    100.00% # Writes before turning the bus around for reads
system.mem_ctrls.wrPerTurnAround::total         57406                       # Writes before turning the bus around for reads
system.mem_ctrls.totQLat                 124946416544                       # Total ticks spent queuing
system.mem_ctrls.totMemAccLat            155379747794                       # Total ticks spent from burst creation until serviced by the DRAM
system.mem_ctrls.totBusLat                 8115555000                       # Total ticks spent in databus transfers
system.mem_ctrls.avgQLat                     76979.59                       # Average queueing delay per DRAM burst
system.mem_ctrls.avgBusLat                    5000.00                       # Average bus latency per DRAM burst
system.mem_ctrls.avgMemAccLat                95729.59                       # Average memory access latency per DRAM burst
system.mem_ctrls.avgRdBW                       263.37                       # Average DRAM read bandwidth in MiByte/s
system.mem_ctrls.avgWrBW                       149.57                       # Average achieved write bandwidth in MiByte/s
system.mem_ctrls.avgRdBWSys                    263.59                       # Average system read bandwidth in MiByte/s
system.mem_ctrls.avgWrBWSys                    149.63                       # Average system write bandwidth in MiByte/s
system.mem_ctrls.peakBW                      12800.00                       # Theoretical peak bandwidth in MiByte/s
system.mem_ctrls.busUtil                         3.23                       # Data bus utilization in percentage
system.mem_ctrls.busUtilRead                     2.06                       # Data bus utilization in percentage for reads
system.mem_ctrls.busUtilWrite                    1.17                       # Data bus utilization in percentage for writes
system.mem_ctrls.avgRdQLen                       2.31                       # Average read queue length when enqueuing
system.mem_ctrls.avgWrQLen                      25.56                       # Average write queue length when enqueuing
system.mem_ctrls.readRowHits                  1363180                       # Number of row buffer hits during reads
system.mem_ctrls.writeRowHits                  837433                       # Number of row buffer hits during writes
system.mem_ctrls.readRowHitRate                 83.99                       # Row buffer hit rate for reads
system.mem_ctrls.writeRowHitRate                90.85                       # Row buffer hit rate for writes
system.mem_ctrls.avgGap                     309762.84                       # Average gap between requests
system.mem_ctrls.pageHitRate                    86.47                       # Row buffer hit rate, read and write combined
system.mem_ctrls_0.actEnergy               1298838240                       # Energy for activate commands per rank (pJ)
system.mem_ctrls_0.preEnergy                708691500                       # Energy for precharge commands per rank (pJ)
system.mem_ctrls_0.readEnergy              6323959200                       # Energy for read commands per rank (pJ)
system.mem_ctrls_0.writeEnergy             2983074480                       # Energy for write commands per rank (pJ)
system.mem_ctrls_0.refreshEnergy          25775855040                       # Energy for refresh commands per rank (pJ)
system.mem_ctrls_0.actBackEnergy         138413465370                       # Energy for active background per rank (pJ)
system.mem_ctrls_0.preBackEnergy         115367812500                       # Energy for precharge background per rank (pJ)
system.mem_ctrls_0.totalEnergy           290871696330                       # Total energy per rank (pJ)
system.mem_ctrls_0.averagePower            737.058487                       # Core power per rank (mW)
system.mem_ctrls_0.memoryStateTime::IDLE 190733763762                       # Time in different power states
system.mem_ctrls_0.memoryStateTime::REF   13170820000                       # Time in different power states
system.mem_ctrls_0.memoryStateTime::PRE_PDN            0                       # Time in different power states
system.mem_ctrls_0.memoryStateTime::ACT  190523496238                       # Time in different power states
system.mem_ctrls_0.memoryStateTime::ACT_PDN            0                       # Time in different power states
system.mem_ctrls_1.actEnergy               1305513720                       # Energy for activate commands per rank (pJ)
system.mem_ctrls_1.preEnergy                712333875                       # Energy for precharge commands per rank (pJ)
system.mem_ctrls_1.readEnergy              6347335800                       # Energy for read commands per rank (pJ)
system.mem_ctrls_1.writeEnergy             2989910880                       # Energy for write commands per rank (pJ)
system.mem_ctrls_1.refreshEnergy          25775855040                       # Energy for refresh commands per rank (pJ)
system.mem_ctrls_1.actBackEnergy         138673605105                       # Energy for active background per rank (pJ)
system.mem_ctrls_1.preBackEnergy         115139611500                       # Energy for precharge background per rank (pJ)
system.mem_ctrls_1.totalEnergy           290944165920                       # Total energy per rank (pJ)
system.mem_ctrls_1.averagePower            737.242148                       # Core power per rank (mW)
system.mem_ctrls_1.memoryStateTime::IDLE 190449563767                       # Time in different power states
system.mem_ctrls_1.memoryStateTime::REF   13170820000                       # Time in different power states
system.mem_ctrls_1.memoryStateTime::PRE_PDN            0                       # Time in different power states
system.mem_ctrls_1.memoryStateTime::ACT  190807668733                       # Time in different power states
system.mem_ctrls_1.memoryStateTime::ACT_PDN            0                       # Time in different power states
system.ruby_clk_domain.clock                      500                       # Clock period in ticks
system.ruby.phys_mem.bytes_read::gpu.ce      18612572                       # Number of bytes read from this memory
system.ruby.phys_mem.bytes_read::gpu.shader_cores0.data      8955424                       # Number of bytes read from this memory
system.ruby.phys_mem.bytes_read::gpu.shader_cores0.inst          192                       # Number of bytes read from this memory
system.ruby.phys_mem.bytes_read::gpu.shader_cores1.data      8908448                       # Number of bytes read from this memory
system.ruby.phys_mem.bytes_read::gpu.shader_cores1.inst          192                       # Number of bytes read from this memory
system.ruby.phys_mem.bytes_read::gpu.shader_cores2.data      8947712                       # Number of bytes read from this memory
system.ruby.phys_mem.bytes_read::gpu.shader_cores2.inst          192                       # Number of bytes read from this memory
system.ruby.phys_mem.bytes_read::gpu.shader_cores3.data      8971712                       # Number of bytes read from this memory
system.ruby.phys_mem.bytes_read::gpu.shader_cores3.inst          208                       # Number of bytes read from this memory
system.ruby.phys_mem.bytes_read::switch_cpus0.inst   2114927744                       # Number of bytes read from this memory
system.ruby.phys_mem.bytes_read::switch_cpus0.data    293812031                       # Number of bytes read from this memory
system.ruby.phys_mem.bytes_read::total     2463136427                       # Number of bytes read from this memory
system.ruby.phys_mem.bytes_inst_read::gpu.shader_cores0.inst          192                       # Number of instructions bytes read from this memory
system.ruby.phys_mem.bytes_inst_read::gpu.shader_cores1.inst          192                       # Number of instructions bytes read from this memory
system.ruby.phys_mem.bytes_inst_read::gpu.shader_cores2.inst          192                       # Number of instructions bytes read from this memory
system.ruby.phys_mem.bytes_inst_read::gpu.shader_cores3.inst          208                       # Number of instructions bytes read from this memory
system.ruby.phys_mem.bytes_inst_read::switch_cpus0.inst   2114927744                       # Number of instructions bytes read from this memory
system.ruby.phys_mem.bytes_inst_read::total   2114928528                       # Number of instructions bytes read from this memory
system.ruby.phys_mem.bytes_written::gpu.ce     18612572                       # Number of bytes written to this memory
system.ruby.phys_mem.bytes_written::gpu.shader_cores0.data      2164736                       # Number of bytes written to this memory
system.ruby.phys_mem.bytes_written::gpu.shader_cores1.data      2152448                       # Number of bytes written to this memory
system.ruby.phys_mem.bytes_written::gpu.shader_cores2.data      2162688                       # Number of bytes written to this memory
system.ruby.phys_mem.bytes_written::gpu.shader_cores3.data      2171008                       # Number of bytes written to this memory
system.ruby.phys_mem.bytes_written::switch_cpus0.data    202940984                       # Number of bytes written to this memory
system.ruby.phys_mem.bytes_written::total    230204436                       # Number of bytes written to this memory
system.ruby.phys_mem.num_reads::gpu.ce         145416                       # Number of read requests responded to by this memory
system.ruby.phys_mem.num_reads::gpu.shader_cores0.data       108237                       # Number of read requests responded to by this memory
system.ruby.phys_mem.num_reads::gpu.shader_cores0.inst           12                       # Number of read requests responded to by this memory
system.ruby.phys_mem.num_reads::gpu.shader_cores1.data       107550                       # Number of read requests responded to by this memory
system.ruby.phys_mem.num_reads::gpu.shader_cores1.inst           12                       # Number of read requests responded to by this memory
system.ruby.phys_mem.num_reads::gpu.shader_cores2.data       108088                       # Number of read requests responded to by this memory
system.ruby.phys_mem.num_reads::gpu.shader_cores2.inst           12                       # Number of read requests responded to by this memory
system.ruby.phys_mem.num_reads::gpu.shader_cores3.data       108258                       # Number of read requests responded to by this memory
system.ruby.phys_mem.num_reads::gpu.shader_cores3.inst           13                       # Number of read requests responded to by this memory
system.ruby.phys_mem.num_reads::switch_cpus0.inst    264365968                       # Number of read requests responded to by this memory
system.ruby.phys_mem.num_reads::switch_cpus0.data     47558603                       # Number of read requests responded to by this memory
system.ruby.phys_mem.num_reads::total       312502169                       # Number of read requests responded to by this memory
system.ruby.phys_mem.num_writes::gpu.ce        145416                       # Number of write requests responded to by this memory
system.ruby.phys_mem.num_writes::gpu.shader_cores0.data        56280                       # Number of write requests responded to by this memory
system.ruby.phys_mem.num_writes::gpu.shader_cores1.data        56158                       # Number of write requests responded to by this memory
system.ruby.phys_mem.num_writes::gpu.shader_cores2.data        56256                       # Number of write requests responded to by this memory
system.ruby.phys_mem.num_writes::gpu.shader_cores3.data        56588                       # Number of write requests responded to by this memory
system.ruby.phys_mem.num_writes::switch_cpus0.data     32754595                       # Number of write requests responded to by this memory
system.ruby.phys_mem.num_writes::total       33125293                       # Number of write requests responded to by this memory
system.ruby.phys_mem.bw_read::gpu.ce         47189235                       # Total read bandwidth from this memory (bytes/s)
system.ruby.phys_mem.bw_read::gpu.shader_cores0.data     22705062                       # Total read bandwidth from this memory (bytes/s)
system.ruby.phys_mem.bw_read::gpu.shader_cores0.inst          487                       # Total read bandwidth from this memory (bytes/s)
system.ruby.phys_mem.bw_read::gpu.shader_cores1.data     22585962                       # Total read bandwidth from this memory (bytes/s)
system.ruby.phys_mem.bw_read::gpu.shader_cores1.inst          487                       # Total read bandwidth from this memory (bytes/s)
system.ruby.phys_mem.bw_read::gpu.shader_cores2.data     22685510                       # Total read bandwidth from this memory (bytes/s)
system.ruby.phys_mem.bw_read::gpu.shader_cores2.inst          487                       # Total read bandwidth from this memory (bytes/s)
system.ruby.phys_mem.bw_read::gpu.shader_cores3.data     22746358                       # Total read bandwidth from this memory (bytes/s)
system.ruby.phys_mem.bw_read::gpu.shader_cores3.inst          527                       # Total read bandwidth from this memory (bytes/s)
system.ruby.phys_mem.bw_read::switch_cpus0.inst   5362065086                       # Total read bandwidth from this memory (bytes/s)
system.ruby.phys_mem.bw_read::switch_cpus0.data    744913975                       # Total read bandwidth from this memory (bytes/s)
system.ruby.phys_mem.bw_read::total        6244893177                       # Total read bandwidth from this memory (bytes/s)
system.ruby.phys_mem.bw_inst_read::gpu.shader_cores0.inst          487                       # Instruction read bandwidth from this memory (bytes/s)
system.ruby.phys_mem.bw_inst_read::gpu.shader_cores1.inst          487                       # Instruction read bandwidth from this memory (bytes/s)
system.ruby.phys_mem.bw_inst_read::gpu.shader_cores2.inst          487                       # Instruction read bandwidth from this memory (bytes/s)
system.ruby.phys_mem.bw_inst_read::gpu.shader_cores3.inst          527                       # Instruction read bandwidth from this memory (bytes/s)
system.ruby.phys_mem.bw_inst_read::switch_cpus0.inst   5362065086                       # Instruction read bandwidth from this memory (bytes/s)
system.ruby.phys_mem.bw_inst_read::total   5362067074                       # Instruction read bandwidth from this memory (bytes/s)
system.ruby.phys_mem.bw_write::gpu.ce        47189235                       # Write bandwidth from this memory (bytes/s)
system.ruby.phys_mem.bw_write::gpu.shader_cores0.data      5488346                       # Write bandwidth from this memory (bytes/s)
system.ruby.phys_mem.bw_write::gpu.shader_cores1.data      5457192                       # Write bandwidth from this memory (bytes/s)
system.ruby.phys_mem.bw_write::gpu.shader_cores2.data      5483154                       # Write bandwidth from this memory (bytes/s)
system.ruby.phys_mem.bw_write::gpu.shader_cores3.data      5504248                       # Write bandwidth from this memory (bytes/s)
system.ruby.phys_mem.bw_write::switch_cpus0.data    514524795                       # Write bandwidth from this memory (bytes/s)
system.ruby.phys_mem.bw_write::total        583646970                       # Write bandwidth from this memory (bytes/s)
system.ruby.phys_mem.bw_total::gpu.ce        94378470                       # Total bandwidth to/from this memory (bytes/s)
system.ruby.phys_mem.bw_total::gpu.shader_cores0.data     28193408                       # Total bandwidth to/from this memory (bytes/s)
system.ruby.phys_mem.bw_total::gpu.shader_cores0.inst          487                       # Total bandwidth to/from this memory (bytes/s)
system.ruby.phys_mem.bw_total::gpu.shader_cores1.data     28043154                       # Total bandwidth to/from this memory (bytes/s)
system.ruby.phys_mem.bw_total::gpu.shader_cores1.inst          487                       # Total bandwidth to/from this memory (bytes/s)
system.ruby.phys_mem.bw_total::gpu.shader_cores2.data     28168663                       # Total bandwidth to/from this memory (bytes/s)
system.ruby.phys_mem.bw_total::gpu.shader_cores2.inst          487                       # Total bandwidth to/from this memory (bytes/s)
system.ruby.phys_mem.bw_total::gpu.shader_cores3.data     28250606                       # Total bandwidth to/from this memory (bytes/s)
system.ruby.phys_mem.bw_total::gpu.shader_cores3.inst          527                       # Total bandwidth to/from this memory (bytes/s)
system.ruby.phys_mem.bw_total::switch_cpus0.inst   5362065086                       # Total bandwidth to/from this memory (bytes/s)
system.ruby.phys_mem.bw_total::switch_cpus0.data   1259438771                       # Total bandwidth to/from this memory (bytes/s)
system.ruby.phys_mem.bw_total::total       6828540146                       # Total bandwidth to/from this memory (bytes/s)
system.cpu_voltage_domain.voltage                   1                       # Voltage in Volts
system.cpu_clk_domain.clock                       500                       # Clock period in ticks
system.cpu0.apic_clk_domain.clock                8000                       # Clock period in ticks
system.cpu0.workload.num_syscalls                 155                       # Number of system calls
system.cpu0.numCycles                               0                       # number of cpu cycles simulated
system.cpu0.numWorkItemsStarted                     0                       # number of work items this cpu started
system.cpu0.numWorkItemsCompleted                   0                       # number of work items this cpu completed
system.cpu0.committedInsts                          0                       # Number of instructions committed
system.cpu0.committedOps                            0                       # Number of ops (including micro ops) committed
system.cpu0.num_int_alu_accesses                    0                       # Number of integer alu accesses
system.cpu0.num_fp_alu_accesses                     0                       # Number of float alu accesses
system.cpu0.num_func_calls                          0                       # number of times a function call or return occured
system.cpu0.num_conditional_control_insts            0                       # number of instructions that are conditional controls
system.cpu0.num_int_insts                           0                       # number of integer instructions
system.cpu0.num_fp_insts                            0                       # number of float instructions
system.cpu0.num_int_register_reads                  0                       # number of times the integer registers were read
system.cpu0.num_int_register_writes                 0                       # number of times the integer registers were written
system.cpu0.num_fp_register_reads                   0                       # number of times the floating registers were read
system.cpu0.num_fp_register_writes                  0                       # number of times the floating registers were written
system.cpu0.num_mem_refs                            0                       # number of memory refs
system.cpu0.num_load_insts                          0                       # Number of load instructions
system.cpu0.num_store_insts                         0                       # Number of store instructions
system.cpu0.num_idle_cycles                         0                       # Number of idle cycles
system.cpu0.num_busy_cycles                         0                       # Number of busy cycles
system.cpu0.not_idle_fraction                       1                       # Percentage of non-idle cycles
system.cpu0.idle_fraction                           0                       # Percentage of idle cycles
system.cpu0.op_class::No_OpClass                    0                       # Class of executed instruction
system.cpu0.op_class::IntAlu                        0                       # Class of executed instruction
system.cpu0.op_class::IntMult                       0                       # Class of executed instruction
system.cpu0.op_class::IntDiv                        0                       # Class of executed instruction
system.cpu0.op_class::FloatAdd                      0                       # Class of executed instruction
system.cpu0.op_class::FloatCmp                      0                       # Class of executed instruction
system.cpu0.op_class::FloatCvt                      0                       # Class of executed instruction
system.cpu0.op_class::FloatMult                     0                       # Class of executed instruction
system.cpu0.op_class::FloatDiv                      0                       # Class of executed instruction
system.cpu0.op_class::FloatSqrt                     0                       # Class of executed instruction
system.cpu0.op_class::SimdAdd                       0                       # Class of executed instruction
system.cpu0.op_class::SimdAddAcc                    0                       # Class of executed instruction
system.cpu0.op_class::SimdAlu                       0                       # Class of executed instruction
system.cpu0.op_class::SimdCmp                       0                       # Class of executed instruction
system.cpu0.op_class::SimdCvt                       0                       # Class of executed instruction
system.cpu0.op_class::SimdMisc                      0                       # Class of executed instruction
system.cpu0.op_class::SimdMult                      0                       # Class of executed instruction
system.cpu0.op_class::SimdMultAcc                   0                       # Class of executed instruction
system.cpu0.op_class::SimdShift                     0                       # Class of executed instruction
system.cpu0.op_class::SimdShiftAcc                  0                       # Class of executed instruction
system.cpu0.op_class::SimdSqrt                      0                       # Class of executed instruction
system.cpu0.op_class::SimdFloatAdd                  0                       # Class of executed instruction
system.cpu0.op_class::SimdFloatAlu                  0                       # Class of executed instruction
system.cpu0.op_class::SimdFloatCmp                  0                       # Class of executed instruction
system.cpu0.op_class::SimdFloatCvt                  0                       # Class of executed instruction
system.cpu0.op_class::SimdFloatDiv                  0                       # Class of executed instruction
system.cpu0.op_class::SimdFloatMisc                 0                       # Class of executed instruction
system.cpu0.op_class::SimdFloatMult                 0                       # Class of executed instruction
system.cpu0.op_class::SimdFloatMultAcc              0                       # Class of executed instruction
system.cpu0.op_class::SimdFloatSqrt                 0                       # Class of executed instruction
system.cpu0.op_class::MemRead                       0                       # Class of executed instruction
system.cpu0.op_class::MemWrite                      0                       # Class of executed instruction
system.cpu0.op_class::IprAccess                     0                       # Class of executed instruction
system.cpu0.op_class::InstPrefetch                  0                       # Class of executed instruction
system.cpu0.op_class::total                         0                       # Class of executed instruction
system.cpu1.apic_clk_domain.clock                8000                       # Clock period in ticks
system.cpu1.numCycles                               0                       # number of cpu cycles simulated
system.cpu1.numWorkItemsStarted                     0                       # number of work items this cpu started
system.cpu1.numWorkItemsCompleted                   0                       # number of work items this cpu completed
system.cpu1.committedInsts                          0                       # Number of instructions committed
system.cpu1.committedOps                            0                       # Number of ops (including micro ops) committed
system.cpu1.num_int_alu_accesses                    0                       # Number of integer alu accesses
system.cpu1.num_fp_alu_accesses                     0                       # Number of float alu accesses
system.cpu1.num_func_calls                          0                       # number of times a function call or return occured
system.cpu1.num_conditional_control_insts            0                       # number of instructions that are conditional controls
system.cpu1.num_int_insts                           0                       # number of integer instructions
system.cpu1.num_fp_insts                            0                       # number of float instructions
system.cpu1.num_int_register_reads                  0                       # number of times the integer registers were read
system.cpu1.num_int_register_writes                 0                       # number of times the integer registers were written
system.cpu1.num_fp_register_reads                   0                       # number of times the floating registers were read
system.cpu1.num_fp_register_writes                  0                       # number of times the floating registers were written
system.cpu1.num_mem_refs                            0                       # number of memory refs
system.cpu1.num_load_insts                          0                       # Number of load instructions
system.cpu1.num_store_insts                         0                       # Number of store instructions
system.cpu1.num_idle_cycles                         0                       # Number of idle cycles
system.cpu1.num_busy_cycles                         0                       # Number of busy cycles
system.cpu1.not_idle_fraction                       0                       # Percentage of non-idle cycles
system.cpu1.idle_fraction                           1                       # Percentage of idle cycles
system.cpu1.op_class::No_OpClass                    0                       # Class of executed instruction
system.cpu1.op_class::IntAlu                        0                       # Class of executed instruction
system.cpu1.op_class::IntMult                       0                       # Class of executed instruction
system.cpu1.op_class::IntDiv                        0                       # Class of executed instruction
system.cpu1.op_class::FloatAdd                      0                       # Class of executed instruction
system.cpu1.op_class::FloatCmp                      0                       # Class of executed instruction
system.cpu1.op_class::FloatCvt                      0                       # Class of executed instruction
system.cpu1.op_class::FloatMult                     0                       # Class of executed instruction
system.cpu1.op_class::FloatDiv                      0                       # Class of executed instruction
system.cpu1.op_class::FloatSqrt                     0                       # Class of executed instruction
system.cpu1.op_class::SimdAdd                       0                       # Class of executed instruction
system.cpu1.op_class::SimdAddAcc                    0                       # Class of executed instruction
system.cpu1.op_class::SimdAlu                       0                       # Class of executed instruction
system.cpu1.op_class::SimdCmp                       0                       # Class of executed instruction
system.cpu1.op_class::SimdCvt                       0                       # Class of executed instruction
system.cpu1.op_class::SimdMisc                      0                       # Class of executed instruction
system.cpu1.op_class::SimdMult                      0                       # Class of executed instruction
system.cpu1.op_class::SimdMultAcc                   0                       # Class of executed instruction
system.cpu1.op_class::SimdShift                     0                       # Class of executed instruction
system.cpu1.op_class::SimdShiftAcc                  0                       # Class of executed instruction
system.cpu1.op_class::SimdSqrt                      0                       # Class of executed instruction
system.cpu1.op_class::SimdFloatAdd                  0                       # Class of executed instruction
system.cpu1.op_class::SimdFloatAlu                  0                       # Class of executed instruction
system.cpu1.op_class::SimdFloatCmp                  0                       # Class of executed instruction
system.cpu1.op_class::SimdFloatCvt                  0                       # Class of executed instruction
system.cpu1.op_class::SimdFloatDiv                  0                       # Class of executed instruction
system.cpu1.op_class::SimdFloatMisc                 0                       # Class of executed instruction
system.cpu1.op_class::SimdFloatMult                 0                       # Class of executed instruction
system.cpu1.op_class::SimdFloatMultAcc              0                       # Class of executed instruction
system.cpu1.op_class::SimdFloatSqrt                 0                       # Class of executed instruction
system.cpu1.op_class::MemRead                       0                       # Class of executed instruction
system.cpu1.op_class::MemWrite                      0                       # Class of executed instruction
system.cpu1.op_class::IprAccess                     0                       # Class of executed instruction
system.cpu1.op_class::InstPrefetch                  0                       # Class of executed instruction
system.cpu1.op_class::total                         0                       # Class of executed instruction
system.gpu.clk_domain.voltage_domain.voltage            1                       # Voltage in Volts
system.gpu.clk_domain.clock                      1429                       # Clock period in ticks
system.gpu.dram_wrapper.clk_domain.clock          541                       # Clock period in ticks
system.gpu.icnt_wrapper.clk_domain.clock         2858                       # Clock period in ticks
system.ruby.delayHist::bucket_size                256                       # delay histogram for all message
system.ruby.delayHist::max_bucket                2559                       # delay histogram for all message
system.ruby.delayHist::samples                7482680                       # delay histogram for all message
system.ruby.delayHist::mean                  4.648118                       # delay histogram for all message
system.ruby.delayHist::stdev                36.034015                       # delay histogram for all message
system.ruby.delayHist                    |     7462902     99.74%     99.74% |       10174      0.14%     99.87% |        4941      0.07%     99.94% |        2693      0.04%     99.97% |        1235      0.02%     99.99% |         446      0.01%    100.00% |         227      0.00%    100.00% |          56      0.00%    100.00% |           6      0.00%    100.00% |           0      0.00%    100.00% # delay histogram for all message
system.ruby.delayHist::total                  7482680                       # delay histogram for all message
system.ruby.outstanding_req_hist::bucket_size            8                      
system.ruby.outstanding_req_hist::max_bucket           79                      
system.ruby.outstanding_req_hist::samples    345627463                      
system.ruby.outstanding_req_hist::mean       1.084472                      
system.ruby.outstanding_req_hist::gmean      1.007932                      
system.ruby.outstanding_req_hist::stdev      2.046935                      
system.ruby.outstanding_req_hist         |   344886060     99.79%     99.79% |      106010      0.03%     99.82% |      126895      0.04%     99.85% |       98305      0.03%     99.88% |       81507      0.02%     99.90% |       37239      0.01%     99.92% |        1018      0.00%     99.92% |          88      0.00%     99.92% |      290341      0.08%    100.00% |           0      0.00%    100.00%
system.ruby.outstanding_req_hist::total     345627463                      
system.ruby.latency_hist::bucket_size            1024                      
system.ruby.latency_hist::max_bucket            10239                      
system.ruby.latency_hist::samples           345627462                      
system.ruby.latency_hist::mean               4.743631                      
system.ruby.latency_hist::gmean              1.020629                      
system.ruby.latency_hist::stdev            122.981324                      
system.ruby.latency_hist                 |   345297636     99.90%     99.90% |       39802      0.01%     99.92% |      141362      0.04%     99.96% |       40511      0.01%     99.97% |       42488      0.01%     99.98% |       28913      0.01%     99.99% |       21639      0.01%    100.00% |       12218      0.00%    100.00% |        2705      0.00%    100.00% |         188      0.00%    100.00%
system.ruby.latency_hist::total             345627462                      
system.ruby.hit_latency_hist::bucket_size            1                      
system.ruby.hit_latency_hist::max_bucket            9                      
system.ruby.hit_latency_hist::samples       344171090                      
system.ruby.hit_latency_hist::mean                  1                      
system.ruby.hit_latency_hist::gmean                 1                      
system.ruby.hit_latency_hist             |           0      0.00%      0.00% |   344171090    100.00%    100.00% |           0      0.00%    100.00% |           0      0.00%    100.00% |           0      0.00%    100.00% |           0      0.00%    100.00% |           0      0.00%    100.00% |           0      0.00%    100.00% |           0      0.00%    100.00% |           0      0.00%    100.00%
system.ruby.hit_latency_hist::total         344171090                      
system.ruby.miss_latency_hist::bucket_size         1024                      
system.ruby.miss_latency_hist::max_bucket        10239                      
system.ruby.miss_latency_hist::samples        1456372                      
system.ruby.miss_latency_hist::mean        889.441858                      
system.ruby.miss_latency_hist::gmean       127.204742                      
system.ruby.miss_latency_hist::stdev      1674.316603                      
system.ruby.miss_latency_hist            |     1126546     77.35%     77.35% |       39802      2.73%     80.09% |      141362      9.71%     89.79% |       40511      2.78%     92.57% |       42488      2.92%     95.49% |       28913      1.99%     97.48% |       21639      1.49%     98.96% |       12218      0.84%     99.80% |        2705      0.19%     99.99% |         188      0.01%    100.00%
system.ruby.miss_latency_hist::total          1456372                      
system.gpu.shader_mmu.numPagefaults                 0                       # Number of Pagefaults
system.gpu.shader_mmu.numPagewalks              45894                       # Number of Pagewalks
system.gpu.shader_mmu.totalRequests             45894                       # Total number of requests
system.gpu.shader_mmu.l2hits                        0                       # Hits in the shared L2
system.gpu.shader_mmu.prefetchHits                  0                       # Number of prefetch hits
system.gpu.shader_mmu.numPrefetches                 0                       # Number of prefetchs
system.gpu.shader_mmu.prefetchFaults                0                       # Number of faults caused by prefetches
system.gpu.shader_mmu.pagefaultLatency::samples            0                       # Latency to complete the pagefault
system.gpu.shader_mmu.pagefaultLatency::mean          nan                       # Latency to complete the pagefault
system.gpu.shader_mmu.pagefaultLatency::gmean          nan                       # Latency to complete the pagefault
system.gpu.shader_mmu.pagefaultLatency::stdev          nan                       # Latency to complete the pagefault
system.gpu.shader_mmu.pagefaultLatency::0            0                       # Latency to complete the pagefault
system.gpu.shader_mmu.pagefaultLatency::1            0                       # Latency to complete the pagefault
system.gpu.shader_mmu.pagefaultLatency::2            0                       # Latency to complete the pagefault
system.gpu.shader_mmu.pagefaultLatency::3            0                       # Latency to complete the pagefault
system.gpu.shader_mmu.pagefaultLatency::4            0                       # Latency to complete the pagefault
system.gpu.shader_mmu.pagefaultLatency::5            0                       # Latency to complete the pagefault
system.gpu.shader_mmu.pagefaultLatency::6            0                       # Latency to complete the pagefault
system.gpu.shader_mmu.pagefaultLatency::7            0                       # Latency to complete the pagefault
system.gpu.shader_mmu.pagefaultLatency::8            0                       # Latency to complete the pagefault
system.gpu.shader_mmu.pagefaultLatency::9            0                       # Latency to complete the pagefault
system.gpu.shader_mmu.pagefaultLatency::10            0                       # Latency to complete the pagefault
system.gpu.shader_mmu.pagefaultLatency::11            0                       # Latency to complete the pagefault
system.gpu.shader_mmu.pagefaultLatency::12            0                       # Latency to complete the pagefault
system.gpu.shader_mmu.pagefaultLatency::13            0                       # Latency to complete the pagefault
system.gpu.shader_mmu.pagefaultLatency::14            0                       # Latency to complete the pagefault
system.gpu.shader_mmu.pagefaultLatency::15            0                       # Latency to complete the pagefault
system.gpu.shader_mmu.pagefaultLatency::16            0                       # Latency to complete the pagefault
system.gpu.shader_mmu.pagefaultLatency::17            0                       # Latency to complete the pagefault
system.gpu.shader_mmu.pagefaultLatency::18            0                       # Latency to complete the pagefault
system.gpu.shader_mmu.pagefaultLatency::19            0                       # Latency to complete the pagefault
system.gpu.shader_mmu.pagefaultLatency::20            0                       # Latency to complete the pagefault
system.gpu.shader_mmu.pagefaultLatency::21            0                       # Latency to complete the pagefault
system.gpu.shader_mmu.pagefaultLatency::22            0                       # Latency to complete the pagefault
system.gpu.shader_mmu.pagefaultLatency::23            0                       # Latency to complete the pagefault
system.gpu.shader_mmu.pagefaultLatency::24            0                       # Latency to complete the pagefault
system.gpu.shader_mmu.pagefaultLatency::25            0                       # Latency to complete the pagefault
system.gpu.shader_mmu.pagefaultLatency::26            0                       # Latency to complete the pagefault
system.gpu.shader_mmu.pagefaultLatency::27            0                       # Latency to complete the pagefault
system.gpu.shader_mmu.pagefaultLatency::28            0                       # Latency to complete the pagefault
system.gpu.shader_mmu.pagefaultLatency::29            0                       # Latency to complete the pagefault
system.gpu.shader_mmu.pagefaultLatency::30            0                       # Latency to complete the pagefault
system.gpu.shader_mmu.pagefaultLatency::31            0                       # Latency to complete the pagefault
system.gpu.shader_mmu.pagefaultLatency::total            0                       # Latency to complete the pagefault
system.gpu.shader_mmu.concurrentWalks::samples        45894                       # Number of outstanding walks
system.gpu.shader_mmu.concurrentWalks::mean            0                       # Number of outstanding walks
system.gpu.shader_mmu.concurrentWalks::gmean            0                       # Number of outstanding walks
system.gpu.shader_mmu.concurrentWalks::stdev            0                       # Number of outstanding walks
system.gpu.shader_mmu.concurrentWalks::0        45894    100.00%    100.00% # Number of outstanding walks
system.gpu.shader_mmu.concurrentWalks::1            0      0.00%    100.00% # Number of outstanding walks
system.gpu.shader_mmu.concurrentWalks::2            0      0.00%    100.00% # Number of outstanding walks
system.gpu.shader_mmu.concurrentWalks::3            0      0.00%    100.00% # Number of outstanding walks
system.gpu.shader_mmu.concurrentWalks::4            0      0.00%    100.00% # Number of outstanding walks
system.gpu.shader_mmu.concurrentWalks::5            0      0.00%    100.00% # Number of outstanding walks
system.gpu.shader_mmu.concurrentWalks::6            0      0.00%    100.00% # Number of outstanding walks
system.gpu.shader_mmu.concurrentWalks::7            0      0.00%    100.00% # Number of outstanding walks
system.gpu.shader_mmu.concurrentWalks::8            0      0.00%    100.00% # Number of outstanding walks
system.gpu.shader_mmu.concurrentWalks::9            0      0.00%    100.00% # Number of outstanding walks
system.gpu.shader_mmu.concurrentWalks::10            0      0.00%    100.00% # Number of outstanding walks
system.gpu.shader_mmu.concurrentWalks::11            0      0.00%    100.00% # Number of outstanding walks
system.gpu.shader_mmu.concurrentWalks::12            0      0.00%    100.00% # Number of outstanding walks
system.gpu.shader_mmu.concurrentWalks::13            0      0.00%    100.00% # Number of outstanding walks
system.gpu.shader_mmu.concurrentWalks::14            0      0.00%    100.00% # Number of outstanding walks
system.gpu.shader_mmu.concurrentWalks::15            0      0.00%    100.00% # Number of outstanding walks
system.gpu.shader_mmu.concurrentWalks::total        45894                       # Number of outstanding walks
system.gpu.shader_mmu.pagewalkLatency::samples        45894                       # Latency to complete the pagewalk
system.gpu.shader_mmu.pagewalkLatency::mean            0                       # Latency to complete the pagewalk
system.gpu.shader_mmu.pagewalkLatency::gmean            0                       # Latency to complete the pagewalk
system.gpu.shader_mmu.pagewalkLatency::stdev            0                       # Latency to complete the pagewalk
system.gpu.shader_mmu.pagewalkLatency::0        45894    100.00%    100.00% # Latency to complete the pagewalk
system.gpu.shader_mmu.pagewalkLatency::1            0      0.00%    100.00% # Latency to complete the pagewalk
system.gpu.shader_mmu.pagewalkLatency::2            0      0.00%    100.00% # Latency to complete the pagewalk
system.gpu.shader_mmu.pagewalkLatency::3            0      0.00%    100.00% # Latency to complete the pagewalk
system.gpu.shader_mmu.pagewalkLatency::4            0      0.00%    100.00% # Latency to complete the pagewalk
system.gpu.shader_mmu.pagewalkLatency::5            0      0.00%    100.00% # Latency to complete the pagewalk
system.gpu.shader_mmu.pagewalkLatency::6            0      0.00%    100.00% # Latency to complete the pagewalk
system.gpu.shader_mmu.pagewalkLatency::7            0      0.00%    100.00% # Latency to complete the pagewalk
system.gpu.shader_mmu.pagewalkLatency::8            0      0.00%    100.00% # Latency to complete the pagewalk
system.gpu.shader_mmu.pagewalkLatency::9            0      0.00%    100.00% # Latency to complete the pagewalk
system.gpu.shader_mmu.pagewalkLatency::10            0      0.00%    100.00% # Latency to complete the pagewalk
system.gpu.shader_mmu.pagewalkLatency::11            0      0.00%    100.00% # Latency to complete the pagewalk
system.gpu.shader_mmu.pagewalkLatency::12            0      0.00%    100.00% # Latency to complete the pagewalk
system.gpu.shader_mmu.pagewalkLatency::13            0      0.00%    100.00% # Latency to complete the pagewalk
system.gpu.shader_mmu.pagewalkLatency::14            0      0.00%    100.00% # Latency to complete the pagewalk
system.gpu.shader_mmu.pagewalkLatency::15            0      0.00%    100.00% # Latency to complete the pagewalk
system.gpu.shader_mmu.pagewalkLatency::16            0      0.00%    100.00% # Latency to complete the pagewalk
system.gpu.shader_mmu.pagewalkLatency::17            0      0.00%    100.00% # Latency to complete the pagewalk
system.gpu.shader_mmu.pagewalkLatency::18            0      0.00%    100.00% # Latency to complete the pagewalk
system.gpu.shader_mmu.pagewalkLatency::19            0      0.00%    100.00% # Latency to complete the pagewalk
system.gpu.shader_mmu.pagewalkLatency::20            0      0.00%    100.00% # Latency to complete the pagewalk
system.gpu.shader_mmu.pagewalkLatency::21            0      0.00%    100.00% # Latency to complete the pagewalk
system.gpu.shader_mmu.pagewalkLatency::22            0      0.00%    100.00% # Latency to complete the pagewalk
system.gpu.shader_mmu.pagewalkLatency::23            0      0.00%    100.00% # Latency to complete the pagewalk
system.gpu.shader_mmu.pagewalkLatency::24            0      0.00%    100.00% # Latency to complete the pagewalk
system.gpu.shader_mmu.pagewalkLatency::25            0      0.00%    100.00% # Latency to complete the pagewalk
system.gpu.shader_mmu.pagewalkLatency::26            0      0.00%    100.00% # Latency to complete the pagewalk
system.gpu.shader_mmu.pagewalkLatency::27            0      0.00%    100.00% # Latency to complete the pagewalk
system.gpu.shader_mmu.pagewalkLatency::28            0      0.00%    100.00% # Latency to complete the pagewalk
system.gpu.shader_mmu.pagewalkLatency::29            0      0.00%    100.00% # Latency to complete the pagewalk
system.gpu.shader_mmu.pagewalkLatency::30            0      0.00%    100.00% # Latency to complete the pagewalk
system.gpu.shader_mmu.pagewalkLatency::31            0      0.00%    100.00% # Latency to complete the pagewalk
system.gpu.shader_mmu.pagewalkLatency::total        45894                       # Latency to complete the pagewalk
system.gpu.kernels_started                          2                       # Number of kernels started
system.gpu.kernels_completed                        2                       # Number of kernels completed
system.gpu.ce.device_dtb.hits                       0                       # Number of hits in this TLB
system.gpu.ce.device_dtb.misses                     0                       # Number of misses in this TLB
system.gpu.ce.device_dtb.hitRate                  nan                       # Hit rate for this TLB
system.gpu.ce.host_dtb.hits                     99523                       # Number of hits in this TLB
system.gpu.ce.host_dtb.misses                   45894                       # Number of misses in this TLB
system.gpu.ce.host_dtb.hitRate               0.684397                       # Hit rate for this TLB
system.gpu.ce.numOperations                         8                       # Number of copy/memset operations
system.gpu.ce.opBytesRead                    18612572                       # Number of copy bytes read
system.gpu.ce.opBytesWritten                 18612572                       # Number of copy/memset bytes written
system.gpu.ce.opTimeTicks                  6109809221                       # Total time spent in copy/memset operations
system.gpu.shader_cores0.itb.hits                   0                       # Number of hits in this TLB
system.gpu.shader_cores0.itb.misses                 0                       # Number of misses in this TLB
system.gpu.shader_cores0.itb.hitRate              nan                       # Hit rate for this TLB
system.gpu.shader_cores0.local_loads                0                       # Number of loads from local space
system.gpu.shader_cores0.local_stores               0                       # Number of stores to local space
system.gpu.shader_cores0.shared_loads         1032192                       # Number of loads from shared space
system.gpu.shader_cores0.shared_stores         786432                       # Number of stores to shared space
system.gpu.shader_cores0.param_kernel_loads      1869056                       # Number of loads from kernel parameter space
system.gpu.shader_cores0.param_local_loads            0                       # Number of loads from local parameter space
system.gpu.shader_cores0.param_local_stores            0                       # Number of stores to local parameter space
system.gpu.shader_cores0.const_loads                0                       # Number of loads from constant space
system.gpu.shader_cores0.tex_loads                  0                       # Number of loads from texture space
system.gpu.shader_cores0.global_loads         2115328                       # Number of loads from global space
system.gpu.shader_cores0.global_stores         541184                       # Number of stores to global space
system.gpu.shader_cores0.surf_loads                 0                       # Number of loads from surface space
system.gpu.shader_cores0.generic_loads              0                       # Number of loads from generic spaces (global, shared, local)
system.gpu.shader_cores0.generic_stores             0                       # Number of stores to generic spaces (global, shared, local)
system.gpu.shader_cores0.inst_cache_requests           12                       # Number of instruction cache requests sent
system.gpu.shader_cores0.inst_cache_retries            0                       # Number of instruction cache retries
system.gpu.shader_cores0.inst_counts::0             0                       # Inst counts: 1: ALU, 2: MAD, 3: CTRL, 4: SFU, 5: MEM, 6: TEX, 7: NOP
system.gpu.shader_cores0.inst_counts::1      33337856                       # Inst counts: 1: ALU, 2: MAD, 3: CTRL, 4: SFU, 5: MEM, 6: TEX, 7: NOP
system.gpu.shader_cores0.inst_counts::2        524800                       # Inst counts: 1: ALU, 2: MAD, 3: CTRL, 4: SFU, 5: MEM, 6: TEX, 7: NOP
system.gpu.shader_cores0.inst_counts::3       4965120                       # Inst counts: 1: ALU, 2: MAD, 3: CTRL, 4: SFU, 5: MEM, 6: TEX, 7: NOP
system.gpu.shader_cores0.inst_counts::4       1572864                       # Inst counts: 1: ALU, 2: MAD, 3: CTRL, 4: SFU, 5: MEM, 6: TEX, 7: NOP
system.gpu.shader_cores0.inst_counts::5       6344192                       # Inst counts: 1: ALU, 2: MAD, 3: CTRL, 4: SFU, 5: MEM, 6: TEX, 7: NOP
system.gpu.shader_cores0.inst_counts::6             0                       # Inst counts: 1: ALU, 2: MAD, 3: CTRL, 4: SFU, 5: MEM, 6: TEX, 7: NOP
system.gpu.shader_cores0.inst_counts::7             0                       # Inst counts: 1: ALU, 2: MAD, 3: CTRL, 4: SFU, 5: MEM, 6: TEX, 7: NOP
system.gpu.shader_cores0.activeCycles         2289286                       # Number of cycles this shader was executing a CTA
system.gpu.shader_cores0.notStalledCycles      1174844                       # Number of cycles this shader was actually executing at least one instance
system.gpu.shader_cores0.instInstances       46744832                       # Total instructions executed by all PEs in the core
system.gpu.shader_cores0.instPerCycle       20.418957                       # Instruction instances per cycle
system.gpu.shader_cores0.kernels_completed            2                       # Number of kernels completed
system.gpu.shader_cores0.lsq.data_tlb.hits            0                       # Number of hits in this TLB
system.gpu.shader_cores0.lsq.data_tlb.misses            0                       # Number of misses in this TLB
system.gpu.shader_cores0.lsq.data_tlb.hitRate          nan                       # Hit rate for this TLB
system.gpu.shader_cores0.lsq.warpInstBufActive::samples   3269842087                       # Histogram of number of active warp inst buffers at a given time
system.gpu.shader_cores0.lsq.warpInstBufActive::mean    19.148487                       # Histogram of number of active warp inst buffers at a given time
[...]
system.ruby.L1Cache_Controller.I.Ifetch::total         3818                      
system.ruby.L1Cache_Controller.I.Store   |         350      5.14%      5.14% |           0      0.00%      5.14% |        1565     22.97%     28.11% |        1648     24.19%     52.30% |        1582     23.22%     75.53% |        1667     24.47%    100.00% |           0      0.00%    100.00% |           0      0.00%    100.00%
system.ruby.L1Cache_Controller.I.Store::total         6812                      
system.ruby.L1Cache_Controller.I.L1_Replacement |         691      0.94%      0.94% |           0      0.00%      0.94% |       18092     24.73%     25.67% |       17740     24.25%     49.92% |       18328     25.05%     74.97% |       18291     25.00%     99.97% |           0      0.00%     99.97% |          19      0.03%    100.00%
system.ruby.L1Cache_Controller.I.L1_Replacement::total        73161                      
system.ruby.L1Cache_Controller.S.Load    |           0      0.00%      0.00% |           0      0.00%      0.00% |       39479     25.13%     25.13% |       39024     24.84%     49.97% |       39105     24.89%     74.87% |       39480     25.13%    100.00% |           0      0.00%    100.00% |           0      0.00%    100.00%
system.ruby.L1Cache_Controller.S.Load::total       157088                      
system.ruby.L1Cache_Controller.S.Ifetch  |   263900306    100.00%    100.00% |           0      0.00%    100.00% |           0      0.00%    100.00% |           0      0.00%    100.00% |           0      0.00%    100.00% |           0      0.00%    100.00% |           0      0.00%    100.00% |           0      0.00%    100.00%
system.ruby.L1Cache_Controller.S.Ifetch::total    263900306                      
system.ruby.L1Cache_Controller.S.Store   |           0      0.00%      0.00% |           0      0.00%      0.00% |        2293     26.32%     26.32% |        2076     23.83%     50.15% |        2137     24.53%     74.69% |        2205     25.31%    100.00% |           0      0.00%    100.00% |           0      0.00%    100.00%
system.ruby.L1Cache_Controller.S.Store::total         8711                      
system.ruby.L1Cache_Controller.S.Inv     |        4146     18.44%     18.44% |           0      0.00%     18.44% |        4539     20.18%     38.62% |        4543     20.20%     58.83% |        4618     20.54%     79.36% |        4633     20.60%     99.96% |           0      0.00%     99.96% |           8      0.04%    100.00%
system.ruby.L1Cache_Controller.S.Inv::total        22487                      
system.ruby.L1Cache_Controller.S.L1_Replacement |      461655     98.07%     98.07% |           0      0.00%     98.07% |        2259      0.48%     98.55% |        2185      0.46%     99.02% |        2150      0.46%     99.48% |        2168      0.46%     99.94% |           0      0.00%     99.94% |         301      0.06%    100.00%
system.ruby.L1Cache_Controller.S.L1_Replacement::total       470718                      
system.ruby.L1Cache_Controller.E.Load    |    10589030     98.68%     98.68% |           0      0.00%     98.68% |       35290      0.33%     99.01% |       35161      0.33%     99.34% |       35412      0.33%     99.67% |       35283      0.33%    100.00% |           0      0.00%    100.00% |           0      0.00%    100.00%
system.ruby.L1Cache_Controller.E.Load::total     10730176                      
system.ruby.L1Cache_Controller.E.Store   |        2373      3.67%      3.67% |           0      0.00%      3.67% |       15483     23.93%     27.60% |       15612     24.13%     51.73% |       15549     24.03%     75.76% |       15681     24.24%    100.00% |           0      0.00%    100.00% |           0      0.00%    100.00%
system.ruby.L1Cache_Controller.E.Store::total        64698                      
system.ruby.L1Cache_Controller.E.Inv     |         963      6.14%      6.14% |           0      0.00%      6.14% |        3572     22.76%     28.90% |        3758     23.95%     52.85% |        3711     23.65%     76.50% |        3688     23.50%    100.00% |           0      0.00%    100.00% |           0      0.00%    100.00%
system.ruby.L1Cache_Controller.E.Inv::total        15692                      
system.ruby.L1Cache_Controller.E.L1_Replacement |      237327     59.58%     59.58% |           0      0.00%     59.58% |        4043      1.02%     60.60% |        3895      0.98%     61.57% |        3956      0.99%     62.57% |        3980      1.00%     63.57% |           0      0.00%     63.57% |      145124     36.43%    100.00%
system.ruby.L1Cache_Controller.E.L1_Replacement::total       398325                      
system.ruby.L1Cache_Controller.E.Fwd_GETX |           0      0.00%      0.00% |           0      0.00%      0.00% |         106     26.04%     26.04% |         106     26.04%     52.09% |          88     21.62%     73.71% |         107     26.29%    100.00% |           0      0.00%    100.00% |           0      0.00%    100.00%
system.ruby.L1Cache_Controller.E.Fwd_GETX::total          407                      
system.ruby.L1Cache_Controller.E.Fwd_GETS |           1      0.02%      0.02% |           0      0.00%      0.02% |        1426     24.62%     24.64% |        1460     25.21%     49.84% |        1458     25.17%     75.02% |        1447     24.98%    100.00% |           0      0.00%    100.00% |           0      0.00%    100.00%
system.ruby.L1Cache_Controller.E.Fwd_GETS::total         5792                      
system.ruby.L1Cache_Controller.M.Load    |    33593708     99.98%     99.98% |           0      0.00%     99.98% |        1514      0.00%     99.99% |        1507      0.00%     99.99% |        1700      0.01%    100.00% |        1364      0.00%    100.00% |           0      0.00%    100.00% |           0      0.00%    100.00%
system.ruby.L1Cache_Controller.M.Load::total     33599793                      
system.ruby.L1Cache_Controller.M.Store   |    35575237     99.60%     99.60% |           0      0.00%     99.60% |       35931      0.10%     99.70% |       35824      0.10%     99.80% |       35999      0.10%     99.90% |       36038      0.10%    100.00% |           0      0.00%    100.00% |           0      0.00%    100.00%
system.ruby.L1Cache_Controller.M.Store::total     35719029                      
system.ruby.L1Cache_Controller.M.Inv     |         898      2.21%      2.21% |           0      0.00%      2.21% |        9887     24.37%     26.58% |        9627     23.73%     50.31% |       10075     24.83%     75.14% |       10066     24.81%     99.95% |           0      0.00%     99.95% |          19      0.05%    100.00%
system.ruby.L1Cache_Controller.M.Inv::total        40572                      
system.ruby.L1Cache_Controller.M.L1_Replacement |      313656     63.94%     63.94% |           0      0.00%     63.94% |        7772      1.58%     65.53% |        8210      1.67%     67.20% |        7615      1.55%     68.75% |        7901      1.61%     70.36% |           0      0.00%     70.36% |      145380     29.64%    100.00%
system.ruby.L1Cache_Controller.M.L1_Replacement::total       490534                      
system.ruby.L1Cache_Controller.M.Fwd_GETX |           1      0.01%      0.01% |           0      0.00%      0.01% |        2298     26.09%     26.10% |        2115     24.01%     50.12% |        2168     24.62%     74.74% |        2225     25.26%    100.00% |           0      0.00%    100.00% |           0      0.00%    100.00%
system.ruby.L1Cache_Controller.M.Fwd_GETX::total         8807                      
system.ruby.L1Cache_Controller.M.Fwd_GETS |           2      0.15%      0.15% |           0      0.00%      0.15% |         329     25.37%     25.52% |         305     23.52%     49.04% |         326     25.13%     74.17% |         318     24.52%     98.69% |           0      0.00%     98.69% |          17      1.31%    100.00%
system.ruby.L1Cache_Controller.M.Fwd_GETS::total         1297                      
system.ruby.L1Cache_Controller.IS.L1_Replacement |           0      0.00%      0.00% |           0      0.00%      0.00% |           0      0.00%      0.00% |           2      0.00%      0.00% |           1      0.00%      0.00% |           2      0.00%      0.00% |           0      0.00%      0.00% |     2044085    100.00%    100.00%
system.ruby.L1Cache_Controller.IS.L1_Replacement::total      2044090                      
system.ruby.L1Cache_Controller.IS.Data_Exclusive |      240877     49.65%     49.65% |           0      0.00%     49.65% |       24630      5.08%     54.73% |       24831      5.12%     59.85% |       24762      5.10%     64.95% |       24903      5.13%     70.09% |           0      0.00%     70.09% |      145124     29.91%    100.00%
system.ruby.L1Cache_Controller.IS.Data_Exclusive::total       485127                      
system.ruby.L1Cache_Controller.IS.DataS_fromL1 |           1      0.01%      0.01% |           0      0.00%      0.01% |        1726     24.35%     24.36% |        1707     24.08%     48.44% |        1723     24.31%     72.75% |        1653     23.32%     96.06% |           0      0.00%     96.06% |         279      3.94%    100.00%
system.ruby.L1Cache_Controller.IS.DataS_fromL1::total         7089                      
system.ruby.L1Cache_Controller.IS.Data_all_Acks |      465662     95.50%     95.50% |           0      0.00%     95.50% |        5610      1.15%     96.65% |        5332      1.09%     97.74% |        5398      1.11%     98.85% |        5588      1.15%    100.00% |           0      0.00%    100.00% |          13      0.00%    100.00%
system.ruby.L1Cache_Controller.IS.Data_all_Acks::total       487603                      
system.ruby.L1Cache_Controller.IM.L1_Replacement |           0      0.00%      0.00% |           0      0.00%      0.00% |           0      0.00%      0.00% |           0      0.00%      0.00% |           0      0.00%      0.00% |           0      0.00%      0.00% |           0      0.00%      0.00% |     1961078    100.00%    100.00%
system.ruby.L1Cache_Controller.IM.L1_Replacement::total      1961078                      
system.ruby.L1Cache_Controller.IM.Data   |           0      0.00%      0.00% |           0      0.00%      0.00% |           2      5.13%      5.13% |           1      2.56%      7.69% |           0      0.00%      7.69% |           0      0.00%      7.69% |           0      0.00%      7.69% |          36     92.31%    100.00%
system.ruby.L1Cache_Controller.IM.Data::total           39                      
system.ruby.L1Cache_Controller.IM.Data_all_Acks |      311972     66.63%     66.63% |           0      0.00%     66.63% |        2667      0.57%     67.20% |        2735      0.58%     67.78% |        2677      0.57%     68.36% |        2784      0.59%     68.95% |           0      0.00%     68.95% |      145380     31.05%    100.00%
system.ruby.L1Cache_Controller.IM.Data_all_Acks::total       468215                      
system.ruby.L1Cache_Controller.IM.Ack    |           0      0.00%      0.00% |           0      0.00%      0.00% |           0      0.00%      0.00% |           0      0.00%      0.00% |           0      0.00%      0.00% |           0      0.00%      0.00% |           0      0.00%      0.00% |          40    100.00%    100.00%
system.ruby.L1Cache_Controller.IM.Ack::total           40                      
system.ruby.L1Cache_Controller.SM.Inv    |           0      0.00%      0.00% |           0      0.00%      0.00% |          96     23.30%     23.30% |          90     21.84%     45.15% |         106     25.73%     70.87% |         120     29.13%    100.00% |           0      0.00%    100.00% |           0      0.00%    100.00%
system.ruby.L1Cache_Controller.SM.Inv::total          412                      
system.ruby.L1Cache_Controller.SM.L1_Replacement |           0      0.00%      0.00% |           0      0.00%      0.00% |           0      0.00%      0.00% |           0      0.00%      0.00% |           0      0.00%      0.00% |           0      0.00%      0.00% |           0      0.00%      0.00% |          14    100.00%    100.00%
system.ruby.L1Cache_Controller.SM.L1_Replacement::total           14                      
system.ruby.L1Cache_Controller.SM.Ack    |           0      0.00%      0.00% |           0      0.00%      0.00% |        2197     26.38%     26.38% |        1986     23.85%     50.23% |        2031     24.39%     74.62% |        2085     25.04%     99.66% |           0      0.00%     99.66% |          28      0.34%    100.00%
system.ruby.L1Cache_Controller.SM.Ack::total         8327                      
system.ruby.L1Cache_Controller.SM.Ack_all |           0      0.00%      0.00% |           0      0.00%      0.00% |        2199     26.37%     26.37% |        1987     23.83%     50.20% |        2031     24.36%     74.56% |        2085     25.01%     99.57% |           0      0.00%     99.57% |          36      0.43%    100.00%
system.ruby.L1Cache_Controller.SM.Ack_all::total         8338                      
system.ruby.L1Cache_Controller.M_I.Inv   |           0      0.00%      0.00% |           0      0.00%      0.00% |          28     18.92%     18.92% |          33     22.30%     41.22% |          41     27.70%     68.92% |          46     31.08%    100.00% |           0      0.00%    100.00% |           0      0.00%    100.00%
system.ruby.L1Cache_Controller.M_I.Inv::total          148                      
system.ruby.L1Cache_Controller.M_I.WB_Ack |      550983     62.00%     62.00% |           0      0.00%     62.00% |       11787      1.33%     63.32% |       12072      1.36%     64.68% |       11530      1.30%     65.98% |       11835      1.33%     67.31% |           0      0.00%     67.31% |      290504     32.69%    100.00%
system.ruby.L1Cache_Controller.M_I.WB_Ack::total       888711                      
system.ruby.L1Cache_Controller.SINK_WB_ACK.WB_Ack |           0      0.00%      0.00% |           0      0.00%      0.00% |          28     18.92%     18.92% |          33     22.30%     41.22% |          41     27.70%     68.92% |          46     31.08%    100.00% |           0      0.00%    100.00% |           0      0.00%    100.00%
system.ruby.L1Cache_Controller.SINK_WB_ACK.WB_Ack::total          148                      
system.ruby.L2Cache_Controller.L1_GET_INSTR       465711      0.00%      0.00%
system.ruby.L2Cache_Controller.L1_GETS         514188      0.00%      0.00%
system.ruby.L2Cache_Controller.L1_GETX         468541      0.00%      0.00%
system.ruby.L2Cache_Controller.L1_UPGRADE         8640      0.00%      0.00%
system.ruby.L2Cache_Controller.L1_PUTX         888711      0.00%      0.00%
system.ruby.L2Cache_Controller.L1_PUTX_old          216      0.00%      0.00%
system.ruby.L2Cache_Controller.L2_Replacement       420910      0.00%      0.00%
system.ruby.L2Cache_Controller.L2_Replacement_clean       389970      0.00%      0.00%
system.ruby.L2Cache_Controller.Mem_Data        812221      0.00%      0.00%
system.ruby.L2Cache_Controller.Mem_Ack         810880      0.00%      0.00%
system.ruby.L2Cache_Controller.WB_Data          42010      0.00%      0.00%
system.ruby.L2Cache_Controller.WB_Data_clean         5799      0.00%      0.00%
system.ruby.L2Cache_Controller.Ack              11205      0.00%      0.00%
system.ruby.L2Cache_Controller.Ack_all          28147      0.00%      0.00%
system.ruby.L2Cache_Controller.Unblock           7089      0.00%      0.00%
system.ruby.L2Cache_Controller.Exclusive_Unblock       961680      0.00%      0.00%
system.ruby.L2Cache_Controller.NP.L1_GET_INSTR         4051      0.00%      0.00%
system.ruby.L2Cache_Controller.NP.L1_GETS       417126      0.00%      0.00%
system.ruby.L2Cache_Controller.NP.L1_GETX       391044      0.00%      0.00%
system.ruby.L2Cache_Controller.NP.L1_PUTX_old           68      0.00%      0.00%
system.ruby.L2Cache_Controller.SS.L1_GET_INSTR       461632      0.00%      0.00%
system.ruby.L2Cache_Controller.SS.L1_GETS         1697      0.00%      0.00%
system.ruby.L2Cache_Controller.SS.L1_GETX           59      0.00%      0.00%
system.ruby.L2Cache_Controller.SS.L1_UPGRADE         8299      0.00%      0.00%
system.ruby.L2Cache_Controller.SS.L2_Replacement          280      0.00%      0.00%
system.ruby.L2Cache_Controller.SS.L2_Replacement_clean        12175      0.00%      0.00%
system.ruby.L2Cache_Controller.M.L1_GETS        77455      0.00%      0.00%
system.ruby.L2Cache_Controller.M.L1_GETX        67937      0.00%      0.00%
system.ruby.L2Cache_Controller.M.L2_Replacement       420071      0.00%      0.00%
system.ruby.L2Cache_Controller.M.L2_Replacement_clean       321942      0.00%      0.00%
system.ruby.L2Cache_Controller.MT.L1_GETS         7089      0.00%      0.00%
system.ruby.L2Cache_Controller.MT.L1_GETX         9214      0.00%      0.00%
system.ruby.L2Cache_Controller.MT.L1_PUTX       888711      0.00%      0.00%
system.ruby.L2Cache_Controller.MT.L2_Replacement          559      0.00%      0.00%
system.ruby.L2Cache_Controller.MT.L2_Replacement_clean        55853      0.00%      0.00%
system.ruby.L2Cache_Controller.M_I.L1_GETS            2      0.00%      0.00%
system.ruby.L2Cache_Controller.M_I.L1_PUTX_old           80      0.00%      0.00%
system.ruby.L2Cache_Controller.M_I.Mem_Ack       810880      0.00%      0.00%
system.ruby.L2Cache_Controller.MT_I.WB_Data          549      0.00%      0.00%
system.ruby.L2Cache_Controller.MT_I.Ack_all           10      0.00%      0.00%
system.ruby.L2Cache_Controller.MCT_I.L1_PUTX_old           68      0.00%      0.00%
system.ruby.L2Cache_Controller.MCT_I.WB_Data        40164      0.00%      0.00%
system.ruby.L2Cache_Controller.MCT_I.WB_Data_clean            7      0.00%      0.00%
system.ruby.L2Cache_Controller.MCT_I.Ack_all        15682      0.00%      0.00%
system.ruby.L2Cache_Controller.I_I.Ack          10925      0.00%      0.00%
system.ruby.L2Cache_Controller.I_I.Ack_all        12175      0.00%      0.00%
system.ruby.L2Cache_Controller.S_I.Ack            280      0.00%      0.00%
system.ruby.L2Cache_Controller.S_I.Ack_all          280      0.00%      0.00%
system.ruby.L2Cache_Controller.ISS.L1_GETS         9454      0.00%      0.00%
system.ruby.L2Cache_Controller.ISS.Mem_Data       407672      0.00%      0.00%
system.ruby.L2Cache_Controller.IS.L1_GET_INSTR           28      0.00%      0.00%
system.ruby.L2Cache_Controller.IS.L1_GETS         1287      0.00%      0.00%
system.ruby.L2Cache_Controller.IS.Mem_Data        13505      0.00%      0.00%
system.ruby.L2Cache_Controller.IM.L1_GETX          166      0.00%      0.00%
system.ruby.L2Cache_Controller.IM.Mem_Data       391044      0.00%      0.00%
system.ruby.L2Cache_Controller.SS_MB.L1_GETS            7      0.00%      0.00%
system.ruby.L2Cache_Controller.SS_MB.L1_GETX           90      0.00%      0.00%
system.ruby.L2Cache_Controller.SS_MB.L1_UPGRADE          341      0.00%      0.00%
system.ruby.L2Cache_Controller.SS_MB.Exclusive_Unblock         8358      0.00%      0.00%
system.ruby.L2Cache_Controller.MT_MB.L1_GETS           53      0.00%      0.00%
system.ruby.L2Cache_Controller.MT_MB.L1_GETX           31      0.00%      0.00%
system.ruby.L2Cache_Controller.MT_MB.Exclusive_Unblock       953322      0.00%      0.00%
system.ruby.L2Cache_Controller.MT_IIB.L1_GETS           18      0.00%      0.00%
system.ruby.L2Cache_Controller.MT_IIB.WB_Data          108      0.00%      0.00%
system.ruby.L2Cache_Controller.MT_IIB.WB_Data_clean          166      0.00%      0.00%
system.ruby.L2Cache_Controller.MT_IIB.Unblock         6815      0.00%      0.00%
system.ruby.L2Cache_Controller.MT_IB.WB_Data         1189      0.00%      0.00%
system.ruby.L2Cache_Controller.MT_IB.WB_Data_clean         5626      0.00%      0.00%
system.ruby.L2Cache_Controller.MT_SB.Unblock          274      0.00%      0.00%

---------- End Simulation Statistics   ----------
