
---------- Begin Simulation Statistics ----------
sim_seconds                                  0.010397                       # Number of seconds simulated
sim_ticks                                 10396714000                       # Number of ticks simulated
final_tick                                10396714000                       # Number of ticks from beginning of simulation (restored from checkpoints and never reset)
sim_freq                                 1000000000000                       # Frequency of simulated ticks
host_inst_rate                                  42584                       # Simulator instruction rate (inst/s)
host_op_rate                                    73608                       # Simulator op (including micro ops) rate (op/s)
host_tick_rate                              110526551                       # Simulator tick rate (ticks/s)
host_mem_usage                                4542452                       # Number of bytes of host memory used
host_seconds                                    94.07                       # Real time elapsed on the host
sim_insts                                     4005682                       # Number of instructions simulated
sim_ops                                       6923930                       # Number of ops (including micro ops) simulated
system.voltage_domain.voltage                       1                       # Voltage in Volts
system.clk_domain.clock                          1000                       # Clock period in ticks
system.mem_ctrls.bytes_read::ruby.dir_cntrl0     17352576                       # Number of bytes read from this memory
system.mem_ctrls.bytes_read::total           17352576                       # Number of bytes read from this memory
system.mem_ctrls.bytes_written::ruby.dir_cntrl0      8405632                       # Number of bytes written to this memory
system.mem_ctrls.bytes_written::total         8405632                       # Number of bytes written to this memory
system.mem_ctrls.num_reads::ruby.dir_cntrl0       135567                       # Number of read requests responded to by this memory
system.mem_ctrls.num_reads::total              135567                       # Number of read requests responded to by this memory
system.mem_ctrls.num_writes::ruby.dir_cntrl0        65669                       # Number of write requests responded to by this memory
system.mem_ctrls.num_writes::total              65669                       # Number of write requests responded to by this memory
system.mem_ctrls.bw_read::ruby.dir_cntrl0   1669044277                       # Total read bandwidth from this memory (bytes/s)
system.mem_ctrls.bw_read::total            1669044277                       # Total read bandwidth from this memory (bytes/s)
system.mem_ctrls.bw_write::ruby.dir_cntrl0    808489298                       # Write bandwidth from this memory (bytes/s)
system.mem_ctrls.bw_write::total            808489298                       # Write bandwidth from this memory (bytes/s)
system.mem_ctrls.bw_total::ruby.dir_cntrl0   2477533575                       # Total bandwidth to/from this memory (bytes/s)
system.mem_ctrls.bw_total::total           2477533575                       # Total bandwidth to/from this memory (bytes/s)
system.mem_ctrls.readReqs                      135567                       # Number of read requests accepted
system.mem_ctrls.writeReqs                      65669                       # Number of write requests accepted
system.mem_ctrls.readBursts                    271134                       # Number of DRAM read bursts, including those serviced by the write queue
system.mem_ctrls.writeBursts                   131338                       # Number of DRAM write bursts, including those merged in the write queue
system.mem_ctrls.bytesReadDRAM               17190400                       # Total number of bytes read from DRAM
system.mem_ctrls.bytesReadWrQ                  162176                       # Total number of bytes read from write queue
system.mem_ctrls.bytesWritten                 8396736                       # Total number of bytes written to DRAM
system.mem_ctrls.bytesReadSys                17352576                       # Total read bytes from the system interface side
system.mem_ctrls.bytesWrittenSys              8405632                       # Total written bytes from the system interface side
system.mem_ctrls.servicedByWrQ                   2534                       # Number of DRAM read bursts serviced by the write queue
system.mem_ctrls.mergedWrBursts                   110                       # Number of DRAM write bursts merged with an existing one
system.mem_ctrls.neitherReadNorWriteReqs            0                       # Number of requests that are neither read nor write
system.mem_ctrls.perBankRdBursts::0             17657                       # Per bank write bursts
system.mem_ctrls.perBankRdBursts::1             17440                       # Per bank write bursts
system.mem_ctrls.perBankRdBursts::2             16834                       # Per bank write bursts
system.mem_ctrls.perBankRdBursts::3             16532                       # Per bank write bursts
system.mem_ctrls.perBankRdBursts::4             17772                       # Per bank write bursts
system.mem_ctrls.perBankRdBursts::5             16663                       # Per bank write bursts
system.mem_ctrls.perBankRdBursts::6             16248                       # Per bank write bursts
system.mem_ctrls.perBankRdBursts::7             16211                       # Per bank write bursts
system.mem_ctrls.perBankRdBursts::8             17218                       # Per bank write bursts
system.mem_ctrls.perBankRdBursts::9             16588                       # Per bank write bursts
system.mem_ctrls.perBankRdBursts::10            16234                       # Per bank write bursts
system.mem_ctrls.perBankRdBursts::11            16249                       # Per bank write bursts
system.mem_ctrls.perBankRdBursts::12            17484                       # Per bank write bursts
system.mem_ctrls.perBankRdBursts::13            16780                       # Per bank write bursts
system.mem_ctrls.perBankRdBursts::14            16344                       # Per bank write bursts
system.mem_ctrls.perBankRdBursts::15            16346                       # Per bank write bursts
system.mem_ctrls.perBankWrBursts::0              8010                       # Per bank write bursts
system.mem_ctrls.perBankWrBursts::1              8390                       # Per bank write bursts
system.mem_ctrls.perBankWrBursts::2              8270                       # Per bank write bursts
system.mem_ctrls.perBankWrBursts::3              8193                       # Per bank write bursts
system.mem_ctrls.perBankWrBursts::4              8258                       # Per bank write bursts
system.mem_ctrls.perBankWrBursts::5              8270                       # Per bank write bursts
system.mem_ctrls.perBankWrBursts::6              8256                       # Per bank write bursts
system.mem_ctrls.perBankWrBursts::7              8124                       # Per bank write bursts
system.mem_ctrls.perBankWrBursts::8              8110                       # Per bank write bursts
system.mem_ctrls.perBankWrBursts::9              8236                       # Per bank write bursts
system.mem_ctrls.perBankWrBursts::10             8232                       # Per bank write bursts
system.mem_ctrls.perBankWrBursts::11             8088                       # Per bank write bursts
system.mem_ctrls.perBankWrBursts::12             8300                       # Per bank write bursts
system.mem_ctrls.perBankWrBursts::13             8172                       # Per bank write bursts
system.mem_ctrls.perBankWrBursts::14             8146                       # Per bank write bursts
system.mem_ctrls.perBankWrBursts::15             8144                       # Per bank write bursts
system.mem_ctrls.numRdRetry                     92102                       # Number of times read queue was full causing retry
system.mem_ctrls.numWrRetry                      3149                       # Number of times write queue was full causing retry
system.mem_ctrls.totGap                   10396649000                       # Total gap between requests
system.mem_ctrls.readPktSize::0                     0                       # Read request sizes (log2)
system.mem_ctrls.readPktSize::1                     0                       # Read request sizes (log2)
system.mem_ctrls.readPktSize::2                     0                       # Read request sizes (log2)
system.mem_ctrls.readPktSize::3                     0                       # Read request sizes (log2)
system.mem_ctrls.readPktSize::4                     0                       # Read request sizes (log2)
system.mem_ctrls.readPktSize::5                     0                       # Read request sizes (log2)
system.mem_ctrls.readPktSize::6                271134                       # Read request sizes (log2)
system.mem_ctrls.writePktSize::0                    0                       # Write request sizes (log2)
system.mem_ctrls.writePktSize::1                    0                       # Write request sizes (log2)
system.mem_ctrls.writePktSize::2                    0                       # Write request sizes (log2)
system.mem_ctrls.writePktSize::3                    0                       # Write request sizes (log2)
system.mem_ctrls.writePktSize::4                    0                       # Write request sizes (log2)
system.mem_ctrls.writePktSize::5                    0                       # Write request sizes (log2)
system.mem_ctrls.writePktSize::6               131338                       # Write request sizes (log2)
system.mem_ctrls.rdQLenPdf::0                   23866                       # What read queue length does an incoming req see
system.mem_ctrls.rdQLenPdf::1                   24498                       # What read queue length does an incoming req see
system.mem_ctrls.rdQLenPdf::2                    5033                       # What read queue length does an incoming req see
system.mem_ctrls.rdQLenPdf::3                    6064                       # What read queue length does an incoming req see
system.mem_ctrls.rdQLenPdf::4                    9018                       # What read queue length does an incoming req see
system.mem_ctrls.rdQLenPdf::5                   10048                       # What read queue length does an incoming req see
system.mem_ctrls.rdQLenPdf::6                   11035                       # What read queue length does an incoming req see
system.mem_ctrls.rdQLenPdf::7                   10887                       # What read queue length does an incoming req see
system.mem_ctrls.rdQLenPdf::8                   10764                       # What read queue length does an incoming req see
system.mem_ctrls.rdQLenPdf::9                   10637                       # What read queue length does an incoming req see
system.mem_ctrls.rdQLenPdf::10                   9673                       # What read queue length does an incoming req see
system.mem_ctrls.rdQLenPdf::11                   9059                       # What read queue length does an incoming req see
system.mem_ctrls.rdQLenPdf::12                   6874                       # What read queue length does an incoming req see
system.mem_ctrls.rdQLenPdf::13                   5591                       # What read queue length does an incoming req see
system.mem_ctrls.rdQLenPdf::14                   3671                       # What read queue length does an incoming req see
system.mem_ctrls.rdQLenPdf::15                   3431                       # What read queue length does an incoming req see
system.mem_ctrls.rdQLenPdf::16                    967                       # What read queue length does an incoming req see
system.mem_ctrls.rdQLenPdf::17                    971                       # What read queue length does an incoming req see
system.mem_ctrls.rdQLenPdf::18                   1001                       # What read queue length does an incoming req see
system.mem_ctrls.rdQLenPdf::19                    987                       # What read queue length does an incoming req see
system.mem_ctrls.rdQLenPdf::20                    968                       # What read queue length does an incoming req see
system.mem_ctrls.rdQLenPdf::21                    961                       # What read queue length does an incoming req see
system.mem_ctrls.rdQLenPdf::22                    868                       # What read queue length does an incoming req see
system.mem_ctrls.rdQLenPdf::23                    903                       # What read queue length does an incoming req see
system.mem_ctrls.rdQLenPdf::24                    987                       # What read queue length does an incoming req see
system.mem_ctrls.rdQLenPdf::25                   1045                       # What read queue length does an incoming req see
system.mem_ctrls.rdQLenPdf::26                   1041                       # What read queue length does an incoming req see
system.mem_ctrls.rdQLenPdf::27                   1053                       # What read queue length does an incoming req see
system.mem_ctrls.rdQLenPdf::28                   1121                       # What read queue length does an incoming req see
system.mem_ctrls.rdQLenPdf::29                   1183                       # What read queue length does an incoming req see
system.mem_ctrls.rdQLenPdf::30                  47435                       # What read queue length does an incoming req see
system.mem_ctrls.rdQLenPdf::31                  46960                       # What read queue length does an incoming req see
system.mem_ctrls.wrQLenPdf::0                       1                       # What write queue length does an incoming req see
system.mem_ctrls.wrQLenPdf::1                       1                       # What write queue length does an incoming req see
system.mem_ctrls.wrQLenPdf::2                       1                       # What write queue length does an incoming req see
system.mem_ctrls.wrQLenPdf::3                       1                       # What write queue length does an incoming req see
system.mem_ctrls.wrQLenPdf::4                       1                       # What write queue length does an incoming req see
system.mem_ctrls.wrQLenPdf::5                       1                       # What write queue length does an incoming req see
system.mem_ctrls.wrQLenPdf::6                       1                       # What write queue length does an incoming req see
system.mem_ctrls.wrQLenPdf::7                       1                       # What write queue length does an incoming req see
system.mem_ctrls.wrQLenPdf::8                       1                       # What write queue length does an incoming req see
system.mem_ctrls.wrQLenPdf::9                       1                       # What write queue length does an incoming req see
system.mem_ctrls.wrQLenPdf::10                      1                       # What write queue length does an incoming req see
system.mem_ctrls.wrQLenPdf::11                      1                       # What write queue length does an incoming req see
system.mem_ctrls.wrQLenPdf::12                      1                       # What write queue length does an incoming req see
system.mem_ctrls.wrQLenPdf::13                      1                       # What write queue length does an incoming req see
system.mem_ctrls.wrQLenPdf::14                      1                       # What write queue length does an incoming req see
system.mem_ctrls.wrQLenPdf::15                    129                       # What write queue length does an incoming req see
system.mem_ctrls.wrQLenPdf::16                    143                       # What write queue length does an incoming req see
system.mem_ctrls.wrQLenPdf::17                   2071                       # What write queue length does an incoming req see
system.mem_ctrls.wrQLenPdf::18                   2166                       # What write queue length does an incoming req see
system.mem_ctrls.wrQLenPdf::19                   2291                       # What write queue length does an incoming req see
system.mem_ctrls.wrQLenPdf::20                   2388                       # What write queue length does an incoming req see
system.mem_ctrls.wrQLenPdf::21                   2825                       # What write queue length does an incoming req see
system.mem_ctrls.wrQLenPdf::22                   3145                       # What write queue length does an incoming req see
system.mem_ctrls.wrQLenPdf::23                   4164                       # What write queue length does an incoming req see
system.mem_ctrls.wrQLenPdf::24                   4577                       # What write queue length does an incoming req see
system.mem_ctrls.wrQLenPdf::25                   5115                       # What write queue length does an incoming req see
system.mem_ctrls.wrQLenPdf::26                   5387                       # What write queue length does an incoming req see
system.mem_ctrls.wrQLenPdf::27                   5718                       # What write queue length does an incoming req see
system.mem_ctrls.wrQLenPdf::28                   6013                       # What write queue length does an incoming req see
system.mem_ctrls.wrQLenPdf::29                   6170                       # What write queue length does an incoming req see
system.mem_ctrls.wrQLenPdf::30                   6079                       # What write queue length does an incoming req see
system.mem_ctrls.wrQLenPdf::31                   6120                       # What write queue length does an incoming req see
system.mem_ctrls.wrQLenPdf::32                   6215                       # What write queue length does an incoming req see
system.mem_ctrls.wrQLenPdf::33                   2702                       # What write queue length does an incoming req see
system.mem_ctrls.wrQLenPdf::34                   2090                       # What write queue length does an incoming req see
system.mem_ctrls.wrQLenPdf::35                   1863                       # What write queue length does an incoming req see
system.mem_ctrls.wrQLenPdf::36                   1732                       # What write queue length does an incoming req see
system.mem_ctrls.wrQLenPdf::37                   1518                       # What write queue length does an incoming req see
system.mem_ctrls.wrQLenPdf::38                   1329                       # What write queue length does an incoming req see
system.mem_ctrls.wrQLenPdf::39                   1411                       # What write queue length does an incoming req see
system.mem_ctrls.wrQLenPdf::40                   1336                       # What write queue length does an incoming req see
system.mem_ctrls.wrQLenPdf::41                   1483                       # What write queue length does an incoming req see
system.mem_ctrls.wrQLenPdf::42                   1460                       # What write queue length does an incoming req see
system.mem_ctrls.wrQLenPdf::43                   1576                       # What write queue length does an incoming req see
system.mem_ctrls.wrQLenPdf::44                   1540                       # What write queue length does an incoming req see
system.mem_ctrls.wrQLenPdf::45                   1776                       # What write queue length does an incoming req see
system.mem_ctrls.wrQLenPdf::46                   1780                       # What write queue length does an incoming req see
system.mem_ctrls.wrQLenPdf::47                   2005                       # What write queue length does an incoming req see
system.mem_ctrls.wrQLenPdf::48                   2047                       # What write queue length does an incoming req see
system.mem_ctrls.wrQLenPdf::49                   2354                       # What write queue length does an incoming req see
system.mem_ctrls.wrQLenPdf::50                   2466                       # What write queue length does an incoming req see
system.mem_ctrls.wrQLenPdf::51                   2750                       # What write queue length does an incoming req see
system.mem_ctrls.wrQLenPdf::52                   2868                       # What write queue length does an incoming req see
system.mem_ctrls.wrQLenPdf::53                   3389                       # What write queue length does an incoming req see
system.mem_ctrls.wrQLenPdf::54                   4007                       # What write queue length does an incoming req see
system.mem_ctrls.wrQLenPdf::55                   3308                       # What write queue length does an incoming req see
system.mem_ctrls.wrQLenPdf::56                   2762                       # What write queue length does an incoming req see
system.mem_ctrls.wrQLenPdf::57                   1753                       # What write queue length does an incoming req see
system.mem_ctrls.wrQLenPdf::58                   1370                       # What write queue length does an incoming req see
system.mem_ctrls.wrQLenPdf::59                    900                       # What write queue length does an incoming req see
system.mem_ctrls.wrQLenPdf::60                    713                       # What write queue length does an incoming req see
system.mem_ctrls.wrQLenPdf::61                    506                       # What write queue length does an incoming req see
system.mem_ctrls.wrQLenPdf::62                   1991                       # What write queue length does an incoming req see
system.mem_ctrls.wrQLenPdf::63                   1712                       # What write queue length does an incoming req see
system.mem_ctrls.bytesPerActivate::samples        67166                       # Bytes accessed per row activation
system.mem_ctrls.bytesPerActivate::mean    380.917488                       # Bytes accessed per row activation
system.mem_ctrls.bytesPerActivate::gmean   290.235877                       # Bytes accessed per row activation
system.mem_ctrls.bytesPerActivate::stdev   290.653077                       # Bytes accessed per row activation
system.mem_ctrls.bytesPerActivate::0-127         1048      1.56%      1.56% # Bytes accessed per row activation
system.mem_ctrls.bytesPerActivate::128-255        21362     31.80%     33.37% # Bytes accessed per row activation
system.mem_ctrls.bytesPerActivate::256-383        17587     26.18%     59.55% # Bytes accessed per row activation
system.mem_ctrls.bytesPerActivate::384-511         5907      8.79%     68.34% # Bytes accessed per row activation
system.mem_ctrls.bytesPerActivate::512-639         8675     12.92%     81.26% # Bytes accessed per row activation
system.mem_ctrls.bytesPerActivate::640-767         2105      3.13%     84.39% # Bytes accessed per row activation
system.mem_ctrls.bytesPerActivate::768-895         1850      2.75%     87.15% # Bytes accessed per row activation
system.mem_ctrls.bytesPerActivate::896-1023         1418      2.11%     89.26% # Bytes accessed per row activation
system.mem_ctrls.bytesPerActivate::1024-1151         7214     10.74%    100.00% # Bytes accessed per row activation
system.mem_ctrls.bytesPerActivate::total        67166                       # Bytes accessed per row activation
system.mem_ctrls.rdPerTurnAround::samples         8141                       # Reads before turning the bus around for writes
system.mem_ctrls.rdPerTurnAround::mean      32.983417                       # Reads before turning the bus around for writes
system.mem_ctrls.rdPerTurnAround::gmean     21.760909                       # Reads before turning the bus around for writes
system.mem_ctrls.rdPerTurnAround::stdev     75.809958                       # Reads before turning the bus around for writes
system.mem_ctrls.rdPerTurnAround::0-127          7985     98.08%     98.08% # Reads before turning the bus around for writes
system.mem_ctrls.rdPerTurnAround::128-255           67      0.82%     98.91% # Reads before turning the bus around for writes
system.mem_ctrls.rdPerTurnAround::256-383           29      0.36%     99.26% # Reads before turning the bus around for writes
system.mem_ctrls.rdPerTurnAround::384-511           28      0.34%     99.61% # Reads before turning the bus around for writes
system.mem_ctrls.rdPerTurnAround::512-639            9      0.11%     99.72% # Reads before turning the bus around for writes
system.mem_ctrls.rdPerTurnAround::640-767            5      0.06%     99.78% # Reads before turning the bus around for writes
system.mem_ctrls.rdPerTurnAround::768-895            7      0.09%     99.86% # Reads before turning the bus around for writes
system.mem_ctrls.rdPerTurnAround::896-1023            3      0.04%     99.90% # Reads before turning the bus around for writes
system.mem_ctrls.rdPerTurnAround::1024-1151            3      0.04%     99.94% # Reads before turning the bus around for writes
system.mem_ctrls.rdPerTurnAround::1152-1279            3      0.04%     99.98% # Reads before turning the bus around for writes
system.mem_ctrls.rdPerTurnAround::1280-1407            1      0.01%     99.99% # Reads before turning the bus around for writes
system.mem_ctrls.rdPerTurnAround::3840-3967            1      0.01%    100.00% # Reads before turning the bus around for writes
system.mem_ctrls.rdPerTurnAround::total          8141                       # Reads before turning the bus around for writes
system.mem_ctrls.wrPerTurnAround::samples         8141                       # Writes before turning the bus around for reads
system.mem_ctrls.wrPerTurnAround::mean      16.115833                       # Writes before turning the bus around for reads
system.mem_ctrls.wrPerTurnAround::gmean     16.089568                       # Writes before turning the bus around for reads
system.mem_ctrls.wrPerTurnAround::stdev      1.159077                       # Writes before turning the bus around for reads
system.mem_ctrls.wrPerTurnAround::16             7966     97.85%     97.85% # Writes before turning the bus around for reads
system.mem_ctrls.wrPerTurnAround::17               12      0.15%     98.00% # Writes before turning the bus around for reads
system.mem_ctrls.wrPerTurnAround::18               98      1.20%     99.20% # Writes before turning the bus around for reads
system.mem_ctrls.wrPerTurnAround::19                6      0.07%     99.28% # Writes before turning the bus around for reads
system.mem_ctrls.wrPerTurnAround::20                5      0.06%     99.34% # Writes before turning the bus around for reads
system.mem_ctrls.wrPerTurnAround::21                1      0.01%     99.35% # Writes before turning the bus around for reads
system.mem_ctrls.wrPerTurnAround::22                8      0.10%     99.45% # Writes before turning the bus around for reads
system.mem_ctrls.wrPerTurnAround::23                3      0.04%     99.48% # Writes before turning the bus around for reads
system.mem_ctrls.wrPerTurnAround::24                5      0.06%     99.55% # Writes before turning the bus around for reads
system.mem_ctrls.wrPerTurnAround::26                5      0.06%     99.61% # Writes before turning the bus around for reads
system.mem_ctrls.wrPerTurnAround::27                2      0.02%     99.63% # Writes before turning the bus around for reads
system.mem_ctrls.wrPerTurnAround::28                2      0.02%     99.66% # Writes before turning the bus around for reads
system.mem_ctrls.wrPerTurnAround::29                2      0.02%     99.68% # Writes before turning the bus around for reads
system.mem_ctrls.wrPerTurnAround::30                5      0.06%     99.74% # Writes before turning the bus around for reads
system.mem_ctrls.wrPerTurnAround::32                4      0.05%     99.79% # Writes before turning the bus around for reads
system.mem_ctrls.wrPerTurnAround::33                2      0.02%     99.82% # Writes before turning the bus around for reads
system.mem_ctrls.wrPerTurnAround::34                7      0.09%     99.90% # Writes before turning the bus around for reads
system.mem_ctrls.wrPerTurnAround::35                2      0.02%     99.93% # Writes before turning the bus around for reads
system.mem_ctrls.wrPerTurnAround::36                3      0.04%     99.96% # Writes before turning the bus around for reads
system.mem_ctrls.wrPerTurnAround::39                3      0.04%    100.00% # Writes before turning the bus around for reads
system.mem_ctrls.wrPerTurnAround::total          8141                       # Writes before turning the bus around for reads
system.mem_ctrls.totQLat                  34208003601                       # Total ticks spent queuing
system.mem_ctrls.totMemAccLat             39244253601                       # Total ticks spent from burst creation until serviced by the DRAM
system.mem_ctrls.totBusLat                 1343000000                       # Total ticks spent in databus transfers
system.mem_ctrls.avgQLat                    127356.68                       # Average queueing delay per DRAM burst
system.mem_ctrls.avgBusLat                    5000.00                       # Average bus latency per DRAM burst
system.mem_ctrls.avgMemAccLat               146106.68                       # Average memory access latency per DRAM burst
system.mem_ctrls.avgRdBW                      1653.45                       # Average DRAM read bandwidth in MiByte/s
system.mem_ctrls.avgWrBW                       807.63                       # Average achieved write bandwidth in MiByte/s
system.mem_ctrls.avgRdBWSys                   1669.04                       # Average system read bandwidth in MiByte/s
system.mem_ctrls.avgWrBWSys                    808.49                       # Average system write bandwidth in MiByte/s
system.mem_ctrls.peakBW                      12800.00                       # Theoretical peak bandwidth in MiByte/s
system.mem_ctrls.busUtil                        19.23                       # Data bus utilization in percentage
system.mem_ctrls.busUtilRead                    12.92                       # Data bus utilization in percentage for reads
system.mem_ctrls.busUtilWrite                    6.31                       # Data bus utilization in percentage for writes
system.mem_ctrls.avgRdQLen                       5.80                       # Average read queue length when enqueuing
system.mem_ctrls.avgWrQLen                      29.30                       # Average write queue length when enqueuing
system.mem_ctrls.readRowHits                   220349                       # Number of row buffer hits during reads
system.mem_ctrls.writeRowHits                  112278                       # Number of row buffer hits during writes
system.mem_ctrls.readRowHitRate                 82.04                       # Row buffer hit rate for reads
system.mem_ctrls.writeRowHitRate                85.56                       # Row buffer hit rate for writes
system.mem_ctrls.avgGap                      51663.96                       # Average gap between requests
system.mem_ctrls.pageHitRate                    83.19                       # Row buffer hit rate, read and write combined
system.mem_ctrls_0.actEnergy                256284000                       # Energy for activate commands per rank (pJ)
system.mem_ctrls_0.preEnergy                139837500                       # Energy for precharge commands per rank (pJ)
system.mem_ctrls_0.readEnergy              1055581800                       # Energy for read commands per rank (pJ)
system.mem_ctrls_0.writeEnergy              426196080                       # Energy for write commands per rank (pJ)
system.mem_ctrls_0.refreshEnergy            678927600                       # Energy for refresh commands per rank (pJ)
system.mem_ctrls_0.actBackEnergy           5179969620                       # Energy for active background per rank (pJ)
system.mem_ctrls_0.preBackEnergy           1693109250                       # Energy for precharge background per rank (pJ)
system.mem_ctrls_0.totalEnergy             9429905850                       # Total energy per rank (pJ)
system.mem_ctrls_0.averagePower            907.166250                       # Core power per rank (mW)
system.mem_ctrls_0.memoryStateTime::IDLE   2766283253                       # Time in different power states
system.mem_ctrls_0.memoryStateTime::REF     347100000                       # Time in different power states
system.mem_ctrls_0.memoryStateTime::PRE_PDN            0                       # Time in different power states
system.mem_ctrls_0.memoryStateTime::ACT    7281534247                       # Time in different power states
system.mem_ctrls_0.memoryStateTime::ACT_PDN            0                       # Time in different power states
system.mem_ctrls_1.actEnergy                251483400                       # Energy for activate commands per rank (pJ)
system.mem_ctrls_1.preEnergy                137218125                       # Energy for precharge commands per rank (pJ)
system.mem_ctrls_1.readEnergy              1039186200                       # Energy for read commands per rank (pJ)
system.mem_ctrls_1.writeEnergy              423973440                       # Energy for write commands per rank (pJ)
system.mem_ctrls_1.refreshEnergy            678927600                       # Energy for refresh commands per rank (pJ)
system.mem_ctrls_1.actBackEnergy           5083942005                       # Energy for active background per rank (pJ)
system.mem_ctrls_1.preBackEnergy           1777344000                       # Energy for precharge background per rank (pJ)
system.mem_ctrls_1.totalEnergy             9392074770                       # Total energy per rank (pJ)
system.mem_ctrls_1.averagePower            903.526862                       # Core power per rank (mW)
system.mem_ctrls_1.memoryStateTime::IDLE   2908036005                       # Time in different power states
system.mem_ctrls_1.memoryStateTime::REF     347100000                       # Time in different power states
system.mem_ctrls_1.memoryStateTime::PRE_PDN            0                       # Time in different power states
system.mem_ctrls_1.memoryStateTime::ACT    7139859995                       # Time in different power states
system.mem_ctrls_1.memoryStateTime::ACT_PDN            0                       # Time in different power states
system.ruby_clk_domain.clock                      500                       # Clock period in ticks
system.ruby.phys_mem.bytes_read::cpu0.inst     41693112                       # Number of bytes read from this memory
system.ruby.phys_mem.bytes_read::cpu0.data      4655331                       # Number of bytes read from this memory
system.ruby.phys_mem.bytes_read::gpu.ce       3158028                       # Number of bytes read from this memory
system.ruby.phys_mem.bytes_read::gpu.shader_cores0.data       610304                       # Number of bytes read from this memory
system.ruby.phys_mem.bytes_read::gpu.shader_cores0.inst          576                       # Number of bytes read from this memory
system.ruby.phys_mem.bytes_read::gpu.shader_cores1.data       610304                       # Number of bytes read from this memory
system.ruby.phys_mem.bytes_read::gpu.shader_cores1.inst          576                       # Number of bytes read from this memory
system.ruby.phys_mem.bytes_read::gpu.shader_cores2.data       610304                       # Number of bytes read from this memory
system.ruby.phys_mem.bytes_read::gpu.shader_cores2.inst          576                       # Number of bytes read from this memory
system.ruby.phys_mem.bytes_read::gpu.shader_cores3.data       610304                       # Number of bytes read from this memory
system.ruby.phys_mem.bytes_read::gpu.shader_cores3.inst          576                       # Number of bytes read from this memory
system.ruby.phys_mem.bytes_read::total       51949991                       # Number of bytes read from this memory
system.ruby.phys_mem.bytes_inst_read::cpu0.inst     41693112                       # Number of instructions bytes read from this memory
system.ruby.phys_mem.bytes_inst_read::gpu.shader_cores0.inst          576                       # Number of instructions bytes read from this memory
system.ruby.phys_mem.bytes_inst_read::gpu.shader_cores1.inst          576                       # Number of instructions bytes read from this memory
system.ruby.phys_mem.bytes_inst_read::gpu.shader_cores2.inst          576                       # Number of instructions bytes read from this memory
system.ruby.phys_mem.bytes_inst_read::gpu.shader_cores3.inst          576                       # Number of instructions bytes read from this memory
system.ruby.phys_mem.bytes_inst_read::total     41695416                       # Number of instructions bytes read from this memory
system.ruby.phys_mem.bytes_written::cpu0.data      3133170                       # Number of bytes written to this memory
system.ruby.phys_mem.bytes_written::gpu.ce      3158028                       # Number of bytes written to this memory
system.ruby.phys_mem.bytes_written::gpu.shader_cores0.data       262144                       # Number of bytes written to this memory
system.ruby.phys_mem.bytes_written::gpu.shader_cores1.data       262144                       # Number of bytes written to this memory
system.ruby.phys_mem.bytes_written::gpu.shader_cores2.data       262144                       # Number of bytes written to this memory
system.ruby.phys_mem.bytes_written::gpu.shader_cores3.data       262144                       # Number of bytes written to this memory
system.ruby.phys_mem.bytes_written::total      7339774                       # Number of bytes written to this memory
system.ruby.phys_mem.num_reads::cpu0.inst      5211639                       # Number of read requests responded to by this memory
system.ruby.phys_mem.num_reads::cpu0.data      1040325                       # Number of read requests responded to by this memory
system.ruby.phys_mem.num_reads::gpu.ce          24675                       # Number of read requests responded to by this memory
system.ruby.phys_mem.num_reads::gpu.shader_cores0.data        10752                       # Number of read requests responded to by this memory
system.ruby.phys_mem.num_reads::gpu.shader_cores0.inst           36                       # Number of read requests responded to by this memory
system.ruby.phys_mem.num_reads::gpu.shader_cores1.data        10752                       # Number of read requests responded to by this memory
system.ruby.phys_mem.num_reads::gpu.shader_cores1.inst           36                       # Number of read requests responded to by this memory
system.ruby.phys_mem.num_reads::gpu.shader_cores2.data        10752                       # Number of read requests responded to by this memory
system.ruby.phys_mem.num_reads::gpu.shader_cores2.inst           36                       # Number of read requests responded to by this memory
system.ruby.phys_mem.num_reads::gpu.shader_cores3.data        10752                       # Number of read requests responded to by this memory
system.ruby.phys_mem.num_reads::gpu.shader_cores3.inst           36                       # Number of read requests responded to by this memory
system.ruby.phys_mem.num_reads::total         6319791                       # Number of read requests responded to by this memory
system.ruby.phys_mem.num_writes::cpu0.data       562240                       # Number of write requests responded to by this memory
system.ruby.phys_mem.num_writes::gpu.ce         24675                       # Number of write requests responded to by this memory
system.ruby.phys_mem.num_writes::gpu.shader_cores0.data         6016                       # Number of write requests responded to by this memory
system.ruby.phys_mem.num_writes::gpu.shader_cores1.data         6016                       # Number of write requests responded to by this memory
system.ruby.phys_mem.num_writes::gpu.shader_cores2.data         6016                       # Number of write requests responded to by this memory
system.ruby.phys_mem.num_writes::gpu.shader_cores3.data         6016                       # Number of write requests responded to by this memory
system.ruby.phys_mem.num_writes::total         610979                       # Number of write requests responded to by this memory
system.ruby.phys_mem.bw_read::cpu0.inst    4010220152                       # Total read bandwidth from this memory (bytes/s)
system.ruby.phys_mem.bw_read::cpu0.data     447769459                       # Total read bandwidth from this memory (bytes/s)
system.ruby.phys_mem.bw_read::gpu.ce        303752513                       # Total read bandwidth from this memory (bytes/s)
system.ruby.phys_mem.bw_read::gpu.shader_cores0.data     58701624                       # Total read bandwidth from this memory (bytes/s)
system.ruby.phys_mem.bw_read::gpu.shader_cores0.inst        55402                       # Total read bandwidth from this memory (bytes/s)
system.ruby.phys_mem.bw_read::gpu.shader_cores1.data     58701624                       # Total read bandwidth from this memory (bytes/s)
system.ruby.phys_mem.bw_read::gpu.shader_cores1.inst        55402                       # Total read bandwidth from this memory (bytes/s)
system.ruby.phys_mem.bw_read::gpu.shader_cores2.data     58701624                       # Total read bandwidth from this memory (bytes/s)
system.ruby.phys_mem.bw_read::gpu.shader_cores2.inst        55402                       # Total read bandwidth from this memory (bytes/s)
system.ruby.phys_mem.bw_read::gpu.shader_cores3.data     58701624                       # Total read bandwidth from this memory (bytes/s)
system.ruby.phys_mem.bw_read::gpu.shader_cores3.inst        55402                       # Total read bandwidth from this memory (bytes/s)
system.ruby.phys_mem.bw_read::total        4996770230                       # Total read bandwidth from this memory (bytes/s)
system.ruby.phys_mem.bw_inst_read::cpu0.inst   4010220152                       # Instruction read bandwidth from this memory (bytes/s)
system.ruby.phys_mem.bw_inst_read::gpu.shader_cores0.inst        55402                       # Instruction read bandwidth from this memory (bytes/s)
system.ruby.phys_mem.bw_inst_read::gpu.shader_cores1.inst        55402                       # Instruction read bandwidth from this memory (bytes/s)
system.ruby.phys_mem.bw_inst_read::gpu.shader_cores2.inst        55402                       # Instruction read bandwidth from this memory (bytes/s)
system.ruby.phys_mem.bw_inst_read::gpu.shader_cores3.inst        55402                       # Instruction read bandwidth from this memory (bytes/s)
system.ruby.phys_mem.bw_inst_read::total   4010441761                       # Instruction read bandwidth from this memory (bytes/s)
system.ruby.phys_mem.bw_write::cpu0.data    301361565                       # Write bandwidth from this memory (bytes/s)
system.ruby.phys_mem.bw_write::gpu.ce       303752513                       # Write bandwidth from this memory (bytes/s)
system.ruby.phys_mem.bw_write::gpu.shader_cores0.data     25214121                       # Write bandwidth from this memory (bytes/s)
system.ruby.phys_mem.bw_write::gpu.shader_cores1.data     25214121                       # Write bandwidth from this memory (bytes/s)
system.ruby.phys_mem.bw_write::gpu.shader_cores2.data     25214121                       # Write bandwidth from this memory (bytes/s)
system.ruby.phys_mem.bw_write::gpu.shader_cores3.data     25214121                       # Write bandwidth from this memory (bytes/s)
system.ruby.phys_mem.bw_write::total        705970560                       # Write bandwidth from this memory (bytes/s)
system.ruby.phys_mem.bw_total::cpu0.inst   4010220152                       # Total bandwidth to/from this memory (bytes/s)
system.ruby.phys_mem.bw_total::cpu0.data    749131024                       # Total bandwidth to/from this memory (bytes/s)
system.ruby.phys_mem.bw_total::gpu.ce       607505025                       # Total bandwidth to/from this memory (bytes/s)
system.ruby.phys_mem.bw_total::gpu.shader_cores0.data     83915745                       # Total bandwidth to/from this memory (bytes/s)
system.ruby.phys_mem.bw_total::gpu.shader_cores0.inst        55402                       # Total bandwidth to/from this memory (bytes/s)
system.ruby.phys_mem.bw_total::gpu.shader_cores1.data     83915745                       # Total bandwidth to/from this memory (bytes/s)
system.ruby.phys_mem.bw_total::gpu.shader_cores1.inst        55402                       # Total bandwidth to/from this memory (bytes/s)
system.ruby.phys_mem.bw_total::gpu.shader_cores2.data     83915745                       # Total bandwidth to/from this memory (bytes/s)
system.ruby.phys_mem.bw_total::gpu.shader_cores2.inst        55402                       # Total bandwidth to/from this memory (bytes/s)
system.ruby.phys_mem.bw_total::gpu.shader_cores3.data     83915745                       # Total bandwidth to/from this memory (bytes/s)
system.ruby.phys_mem.bw_total::gpu.shader_cores3.inst        55402                       # Total bandwidth to/from this memory (bytes/s)
system.ruby.phys_mem.bw_total::total       5702740789                       # Total bandwidth to/from this memory (bytes/s)
system.cpu_voltage_domain.voltage                   1                       # Voltage in Volts
system.cpu_clk_domain.clock                       500                       # Clock period in ticks
system.cpu0.apic_clk_domain.clock                8000                       # Clock period in ticks
system.cpu0.workload.num_syscalls                  35                       # Number of system calls
system.cpu0.numCycles                        20793428                       # number of cpu cycles simulated
system.cpu0.numWorkItemsStarted                     2                       # number of work items this cpu started
system.cpu0.numWorkItemsCompleted                   2                       # number of work items this cpu completed
system.cpu0.committedInsts                    4005682                       # Number of instructions committed
system.cpu0.committedOps                      6923930                       # Number of ops (including micro ops) committed
system.cpu0.num_int_alu_accesses              6892765                       # Number of integer alu accesses
system.cpu0.num_fp_alu_accesses                161011                       # Number of float alu accesses
system.cpu0.num_func_calls                      44761                       # number of times a function call or return occured
system.cpu0.num_conditional_control_insts       495007                       # number of instructions that are conditional controls
system.cpu0.num_int_insts                     6892765                       # number of integer instructions
system.cpu0.num_fp_insts                       161011                       # number of float instructions
system.cpu0.num_int_register_reads           13142048                       # number of times the integer registers were read
system.cpu0.num_int_register_writes           5777264                       # number of times the integer registers were written
system.cpu0.num_fp_register_reads              186083                       # number of times the floating registers were read
system.cpu0.num_fp_register_writes              27431                       # number of times the floating registers were written
system.cpu0.num_cc_register_reads             2888581                       # number of times the CC registers were read
system.cpu0.num_cc_register_writes            2649476                       # number of times the CC registers were written
system.cpu0.num_mem_refs                      1602558                       # number of memory refs
system.cpu0.num_load_insts                    1040319                       # Number of load instructions
system.cpu0.num_store_insts                    562239                       # Number of store instructions
system.cpu0.num_idle_cycles              2445226.007765                       # Number of idle cycles
system.cpu0.num_busy_cycles              18348201.992235                       # Number of busy cycles
system.cpu0.not_idle_fraction                0.882404                       # Percentage of non-idle cycles
system.cpu0.idle_fraction                    0.117596                       # Percentage of idle cycles
system.cpu0.Branches                           554274                       # Number of branches fetched
system.cpu0.op_class::No_OpClass                 6399      0.09%      0.09% # Class of executed instruction
system.cpu0.op_class::IntAlu                  5288526     76.38%     76.47% # Class of executed instruction
system.cpu0.op_class::IntMult                    3087      0.04%     76.52% # Class of executed instruction
system.cpu0.op_class::IntDiv                      279      0.00%     76.52% # Class of executed instruction
system.cpu0.op_class::FloatAdd                  23081      0.33%     76.85% # Class of executed instruction
system.cpu0.op_class::FloatCmp                      0      0.00%     76.85% # Class of executed instruction
system.cpu0.op_class::FloatCvt                      0      0.00%     76.85% # Class of executed instruction
system.cpu0.op_class::FloatMult                     0      0.00%     76.85% # Class of executed instruction
system.cpu0.op_class::FloatDiv                      0      0.00%     76.85% # Class of executed instruction
system.cpu0.op_class::FloatSqrt                     0      0.00%     76.85% # Class of executed instruction
system.cpu0.op_class::SimdAdd                       0      0.00%     76.85% # Class of executed instruction
system.cpu0.op_class::SimdAddAcc                    0      0.00%     76.85% # Class of executed instruction
system.cpu0.op_class::SimdAlu                       0      0.00%     76.85% # Class of executed instruction
system.cpu0.op_class::SimdCmp                       0      0.00%     76.85% # Class of executed instruction
system.cpu0.op_class::SimdCvt                       0      0.00%     76.85% # Class of executed instruction
system.cpu0.op_class::SimdMisc                      0      0.00%     76.85% # Class of executed instruction
system.cpu0.op_class::SimdMult                      0      0.00%     76.85% # Class of executed instruction
system.cpu0.op_class::SimdMultAcc                   0      0.00%     76.85% # Class of executed instruction
system.cpu0.op_class::SimdShift                     0      0.00%     76.85% # Class of executed instruction
system.cpu0.op_class::SimdShiftAcc                  0      0.00%     76.85% # Class of executed instruction
system.cpu0.op_class::SimdSqrt                      0      0.00%     76.85% # Class of executed instruction
system.cpu0.op_class::SimdFloatAdd                  0      0.00%     76.85% # Class of executed instruction
system.cpu0.op_class::SimdFloatAlu                  0      0.00%     76.85% # Class of executed instruction
system.cpu0.op_class::SimdFloatCmp                  0      0.00%     76.85% # Class of executed instruction
system.cpu0.op_class::SimdFloatCvt                  0      0.00%     76.85% # Class of executed instruction
system.cpu0.op_class::SimdFloatDiv                  0      0.00%     76.85% # Class of executed instruction
system.cpu0.op_class::SimdFloatMisc                 0      0.00%     76.85% # Class of executed instruction
system.cpu0.op_class::SimdFloatMult                 0      0.00%     76.85% # Class of executed instruction
system.cpu0.op_class::SimdFloatMultAcc              0      0.00%     76.85% # Class of executed instruction
system.cpu0.op_class::SimdFloatSqrt                 0      0.00%     76.85% # Class of executed instruction
system.cpu0.op_class::MemRead                 1040319     15.02%     91.88% # Class of executed instruction
system.cpu0.op_class::MemWrite                 562239      8.12%    100.00% # Class of executed instruction
system.cpu0.op_class::IprAccess                     0      0.00%    100.00% # Class of executed instruction
system.cpu0.op_class::InstPrefetch                  0      0.00%    100.00% # Class of executed instruction
system.cpu0.op_class::total                   6923930                       # Class of executed instruction
system.cpu1.apic_clk_domain.clock                8000                       # Clock period in ticks
system.cpu1.numCycles                               0                       # number of cpu cycles simulated
system.cpu1.numWorkItemsStarted                     0                       # number of work items this cpu started
system.cpu1.numWorkItemsCompleted                   0                       # number of work items this cpu completed
system.cpu1.committedInsts                          0                       # Number of instructions committed
system.cpu1.committedOps                            0                       # Number of ops (including micro ops) committed
system.cpu1.num_int_alu_accesses                    0                       # Number of integer alu accesses
system.cpu1.num_fp_alu_accesses                     0                       # Number of float alu accesses
system.cpu1.num_func_calls                          0                       # number of times a function call or return occured
system.cpu1.num_conditional_control_insts            0                       # number of instructions that are conditional controls
system.cpu1.num_int_insts                           0                       # number of integer instructions
system.cpu1.num_fp_insts                            0                       # number of float instructions
system.cpu1.num_int_register_reads                  0                       # number of times the integer registers were read
system.cpu1.num_int_register_writes                 0                       # number of times the integer registers were written
system.cpu1.num_fp_register_reads                   0                       # number of times the floating registers were read
system.cpu1.num_fp_register_writes                  0                       # number of times the floating registers were written
system.cpu1.num_mem_refs                            0                       # number of memory refs
system.cpu1.num_load_insts                          0                       # Number of load instructions
system.cpu1.num_store_insts                         0                       # Number of store instructions
system.cpu1.num_idle_cycles                         0                       # Number of idle cycles
system.cpu1.num_busy_cycles                         0                       # Number of busy cycles
system.cpu1.not_idle_fraction                       0                       # Percentage of non-idle cycles
system.cpu1.idle_fraction                           1                       # Percentage of idle cycles
system.cpu1.op_class::No_OpClass                    0                       # Class of executed instruction
system.cpu1.op_class::IntAlu                        0                       # Class of executed instruction
system.cpu1.op_class::IntMult                       0                       # Class of executed instruction
system.cpu1.op_class::IntDiv                        0                       # Class of executed instruction
system.cpu1.op_class::FloatAdd                      0                       # Class of executed instruction
system.cpu1.op_class::FloatCmp                      0                       # Class of executed instruction
system.cpu1.op_class::FloatCvt                      0                       # Class of executed instruction
system.cpu1.op_class::FloatMult                     0                       # Class of executed instruction
system.cpu1.op_class::FloatDiv                      0                       # Class of executed instruction
system.cpu1.op_class::FloatSqrt                     0                       # Class of executed instruction
system.cpu1.op_class::SimdAdd                       0                       # Class of executed instruction
system.cpu1.op_class::SimdAddAcc                    0                       # Class of executed instruction
system.cpu1.op_class::SimdAlu                       0                       # Class of executed instruction
system.cpu1.op_class::SimdCmp                       0                       # Class of executed instruction
system.cpu1.op_class::SimdCvt                       0                       # Class of executed instruction
system.cpu1.op_class::SimdMisc                      0                       # Class of executed instruction
system.cpu1.op_class::SimdMult                      0                       # Class of executed instruction
system.cpu1.op_class::SimdMultAcc                   0                       # Class of executed instruction
system.cpu1.op_class::SimdShift                     0                       # Class of executed instruction
system.cpu1.op_class::SimdShiftAcc                  0                       # Class of executed instruction
system.cpu1.op_class::SimdSqrt                      0                       # Class of executed instruction
system.cpu1.op_class::SimdFloatAdd                  0                       # Class of executed instruction
system.cpu1.op_class::SimdFloatAlu                  0                       # Class of executed instruction
system.cpu1.op_class::SimdFloatCmp                  0                       # Class of executed instruction
system.cpu1.op_class::SimdFloatCvt                  0                       # Class of executed instruction
system.cpu1.op_class::SimdFloatDiv                  0                       # Class of executed instruction
system.cpu1.op_class::SimdFloatMisc                 0                       # Class of executed instruction
system.cpu1.op_class::SimdFloatMult                 0                       # Class of executed instruction
system.cpu1.op_class::SimdFloatMultAcc              0                       # Class of executed instruction
system.cpu1.op_class::SimdFloatSqrt                 0                       # Class of executed instruction
system.cpu1.op_class::MemRead                       0                       # Class of executed instruction
system.cpu1.op_class::MemWrite                      0                       # Class of executed instruction
system.cpu1.op_class::IprAccess                     0                       # Class of executed instruction
system.cpu1.op_class::InstPrefetch                  0                       # Class of executed instruction
system.cpu1.op_class::total                         0                       # Class of executed instruction
system.gpu.clk_domain.voltage_domain.voltage            1                       # Voltage in Volts
system.gpu.clk_domain.clock                      1429                       # Clock period in ticks
system.gpu.dram_wrapper.clk_domain.clock          541                       # Clock period in ticks
system.gpu.icnt_wrapper.clk_domain.clock         2858                       # Clock period in ticks
system.ruby.delayHist::bucket_size               1024                       # delay histogram for all message
system.ruby.delayHist::max_bucket               10239                       # delay histogram for all message
system.ruby.delayHist::samples                 964765                       # delay histogram for all message
system.ruby.delayHist::mean                 19.659745                       # delay histogram for all message
system.ruby.delayHist::stdev               169.963548                       # delay histogram for all message
system.ruby.delayHist                    |      959184     99.42%     99.42% |        3409      0.35%     99.77% |        1645      0.17%     99.95% |         376      0.04%     99.98% |         128      0.01%    100.00% |           9      0.00%    100.00% |          14      0.00%    100.00% |           0      0.00%    100.00% |           0      0.00%    100.00% |           0      0.00%    100.00% # delay histogram for all message
system.ruby.delayHist::total                   964765                       # delay histogram for all message
system.ruby.outstanding_req_hist::bucket_size           16                      
system.ruby.outstanding_req_hist::max_bucket          159                      
system.ruby.outstanding_req_hist::samples      6930770                      
system.ruby.outstanding_req_hist::mean       1.608007                      
system.ruby.outstanding_req_hist::gmean      1.053626                      
system.ruby.outstanding_req_hist::stdev      5.867375                      
system.ruby.outstanding_req_hist         |     6858380     98.96%     98.96% |       13109      0.19%     99.14% |        4609      0.07%     99.21% |        2050      0.03%     99.24% |       50244      0.72%     99.97% |         850      0.01%     99.98% |        1528      0.02%    100.00% |           0      0.00%    100.00% |           0      0.00%    100.00% |           0      0.00%    100.00%
system.ruby.outstanding_req_hist::total       6930770                      
system.ruby.latency_hist::bucket_size            4096                      
system.ruby.latency_hist::max_bucket            40959                      
system.ruby.latency_hist::samples             6930770                      
system.ruby.latency_hist::mean              42.563428                      
system.ruby.latency_hist::gmean              1.145634                      
system.ruby.latency_hist::stdev            488.383424                      
system.ruby.latency_hist                 |     6902752     99.60%     99.60% |       23733      0.34%     99.94% |        2101      0.03%     99.97% |        1480      0.02%     99.99% |         652      0.01%    100.00% |          47      0.00%    100.00% |           5      0.00%    100.00% |           0      0.00%    100.00% |           0      0.00%    100.00% |           0      0.00%    100.00%
system.ruby.latency_hist::total               6930770                      
system.ruby.hit_latency_hist::bucket_size            1                      
system.ruby.hit_latency_hist::max_bucket            9                      
system.ruby.hit_latency_hist::samples         6791838                      
system.ruby.hit_latency_hist::mean                  1                      
system.ruby.hit_latency_hist::gmean                 1                      
system.ruby.hit_latency_hist             |           0      0.00%      0.00% |     6791838    100.00%    100.00% |           0      0.00%    100.00% |           0      0.00%    100.00% |           0      0.00%    100.00% |           0      0.00%    100.00% |           0      0.00%    100.00% |           0      0.00%    100.00% |           0      0.00%    100.00% |           0      0.00%    100.00%
system.ruby.hit_latency_hist::total           6791838                      
system.ruby.miss_latency_hist::bucket_size         4096                      
system.ruby.miss_latency_hist::max_bucket        40959                      
system.ruby.miss_latency_hist::samples         138932                      
system.ruby.miss_latency_hist::mean       2074.435652                      
system.ruby.miss_latency_hist::gmean       882.197414                      
system.ruby.miss_latency_hist::stdev      2772.334539                      
system.ruby.miss_latency_hist            |      110914     79.83%     79.83% |       23733     17.08%     96.92% |        2101      1.51%     98.43% |        1480      1.07%     99.49% |         652      0.47%     99.96% |          47      0.03%    100.00% |           5      0.00%    100.00% |           0      0.00%    100.00% |           0      0.00%    100.00% |           0      0.00%    100.00%
system.ruby.miss_latency_hist::total           138932                      
system.gpu.shader_mmu.numPagefaults                 0                       # Number of Pagefaults
system.gpu.shader_mmu.numPagewalks              11002                       # Number of Pagewalks
system.gpu.shader_mmu.totalRequests             11002                       # Total number of requests
system.gpu.shader_mmu.l2hits                        0                       # Hits in the shared L2
system.gpu.shader_mmu.prefetchHits                  0                       # Number of prefetch hits
system.gpu.shader_mmu.numPrefetches                 0                       # Number of prefetchs
system.gpu.shader_mmu.prefetchFaults                0                       # Number of faults caused by prefetches
system.gpu.shader_mmu.pagefaultLatency::samples            0                       # Latency to complete the pagefault
system.gpu.shader_mmu.pagefaultLatency::mean          nan                       # Latency to complete the pagefault
system.gpu.shader_mmu.pagefaultLatency::gmean          nan                       # Latency to complete the pagefault
system.gpu.shader_mmu.pagefaultLatency::stdev          nan                       # Latency to complete the pagefault
system.gpu.shader_mmu.pagefaultLatency::0            0                       # Latency to complete the pagefault
system.gpu.shader_mmu.pagefaultLatency::1            0                       # Latency to complete the pagefault
system.gpu.shader_mmu.pagefaultLatency::2            0                       # Latency to complete the pagefault
system.gpu.shader_mmu.pagefaultLatency::3            0                       # Latency to complete the pagefault
system.gpu.shader_mmu.pagefaultLatency::4            0                       # Latency to complete the pagefault
system.gpu.shader_mmu.pagefaultLatency::5            0                       # Latency to complete the pagefault
system.gpu.shader_mmu.pagefaultLatency::6            0                       # Latency to complete the pagefault
system.gpu.shader_mmu.pagefaultLatency::7            0                       # Latency to complete the pagefault
system.gpu.shader_mmu.pagefaultLatency::8            0                       # Latency to complete the pagefault
system.gpu.shader_mmu.pagefaultLatency::9            0                       # Latency to complete the pagefault
system.gpu.shader_mmu.pagefaultLatency::10            0                       # Latency to complete the pagefault
system.gpu.shader_mmu.pagefaultLatency::11            0                       # Latency to complete the pagefault
system.gpu.shader_mmu.pagefaultLatency::12            0                       # Latency to complete the pagefault
system.gpu.shader_mmu.pagefaultLatency::13            0                       # Latency to complete the pagefault
system.gpu.shader_mmu.pagefaultLatency::14            0                       # Latency to complete the pagefault
system.gpu.shader_mmu.pagefaultLatency::15            0                       # Latency to complete the pagefault
system.gpu.shader_mmu.pagefaultLatency::16            0                       # Latency to complete the pagefault
system.gpu.shader_mmu.pagefaultLatency::17            0                       # Latency to complete the pagefault
system.gpu.shader_mmu.pagefaultLatency::18            0                       # Latency to complete the pagefault
system.gpu.shader_mmu.pagefaultLatency::19            0                       # Latency to complete the pagefault
system.gpu.shader_mmu.pagefaultLatency::20            0                       # Latency to complete the pagefault
system.gpu.shader_mmu.pagefaultLatency::21            0                       # Latency to complete the pagefault
system.gpu.shader_mmu.pagefaultLatency::22            0                       # Latency to complete the pagefault
system.gpu.shader_mmu.pagefaultLatency::23            0                       # Latency to complete the pagefault
system.gpu.shader_mmu.pagefaultLatency::24            0                       # Latency to complete the pagefault
system.gpu.shader_mmu.pagefaultLatency::25            0                       # Latency to complete the pagefault
system.gpu.shader_mmu.pagefaultLatency::26            0                       # Latency to complete the pagefault
system.gpu.shader_mmu.pagefaultLatency::27            0                       # Latency to complete the pagefault
system.gpu.shader_mmu.pagefaultLatency::28            0                       # Latency to complete the pagefault
system.gpu.shader_mmu.pagefaultLatency::29            0                       # Latency to complete the pagefault
system.gpu.shader_mmu.pagefaultLatency::30            0                       # Latency to complete the pagefault
system.gpu.shader_mmu.pagefaultLatency::31            0                       # Latency to complete the pagefault
system.gpu.shader_mmu.pagefaultLatency::total            0                       # Latency to complete the pagefault
system.gpu.shader_mmu.concurrentWalks::samples        11002                       # Number of outstanding walks
system.gpu.shader_mmu.concurrentWalks::mean            0                       # Number of outstanding walks
system.gpu.shader_mmu.concurrentWalks::gmean            0                       # Number of outstanding walks
system.gpu.shader_mmu.concurrentWalks::stdev            0                       # Number of outstanding walks
system.gpu.shader_mmu.concurrentWalks::0        11002    100.00%    100.00% # Number of outstanding walks
system.gpu.shader_mmu.concurrentWalks::1            0      0.00%    100.00% # Number of outstanding walks
system.gpu.shader_mmu.concurrentWalks::2            0      0.00%    100.00% # Number of outstanding walks
system.gpu.shader_mmu.concurrentWalks::3            0      0.00%    100.00% # Number of outstanding walks
system.gpu.shader_mmu.concurrentWalks::4            0      0.00%    100.00% # Number of outstanding walks
system.gpu.shader_mmu.concurrentWalks::5            0      0.00%    100.00% # Number of outstanding walks
system.gpu.shader_mmu.concurrentWalks::6            0      0.00%    100.00% # Number of outstanding walks
system.gpu.shader_mmu.concurrentWalks::7            0      0.00%    100.00% # Number of outstanding walks
system.gpu.shader_mmu.concurrentWalks::8            0      0.00%    100.00% # Number of outstanding walks
system.gpu.shader_mmu.concurrentWalks::9            0      0.00%    100.00% # Number of outstanding walks
system.gpu.shader_mmu.concurrentWalks::10            0      0.00%    100.00% # Number of outstanding walks
system.gpu.shader_mmu.concurrentWalks::11            0      0.00%    100.00% # Number of outstanding walks
system.gpu.shader_mmu.concurrentWalks::12            0      0.00%    100.00% # Number of outstanding walks
system.gpu.shader_mmu.concurrentWalks::13            0      0.00%    100.00% # Number of outstanding walks
system.gpu.shader_mmu.concurrentWalks::14            0      0.00%    100.00% # Number of outstanding walks
system.gpu.shader_mmu.concurrentWalks::15            0      0.00%    100.00% # Number of outstanding walks
system.gpu.shader_mmu.concurrentWalks::total        11002                       # Number of outstanding walks
system.gpu.shader_mmu.pagewalkLatency::samples        11002                       # Latency to complete the pagewalk
system.gpu.shader_mmu.pagewalkLatency::mean            0                       # Latency to complete the pagewalk
system.gpu.shader_mmu.pagewalkLatency::gmean            0                       # Latency to complete the pagewalk
system.gpu.shader_mmu.pagewalkLatency::stdev            0                       # Latency to complete the pagewalk
system.gpu.shader_mmu.pagewalkLatency::0        11002    100.00%    100.00% # Latency to complete the pagewalk
system.gpu.shader_mmu.pagewalkLatency::1            0      0.00%    100.00% # Latency to complete the pagewalk
system.gpu.shader_mmu.pagewalkLatency::2            0      0.00%    100.00% # Latency to complete the pagewalk
system.gpu.shader_mmu.pagewalkLatency::3            0      0.00%    100.00% # Latency to complete the pagewalk
system.gpu.shader_mmu.pagewalkLatency::4            0      0.00%    100.00% # Latency to complete the pagewalk
system.gpu.shader_mmu.pagewalkLatency::5            0      0.00%    100.00% # Latency to complete the pagewalk
system.gpu.shader_mmu.pagewalkLatency::6            0      0.00%    100.00% # Latency to complete the pagewalk
system.gpu.shader_mmu.pagewalkLatency::7            0      0.00%    100.00% # Latency to complete the pagewalk
system.gpu.shader_mmu.pagewalkLatency::8            0      0.00%    100.00% # Latency to complete the pagewalk
system.gpu.shader_mmu.pagewalkLatency::9            0      0.00%    100.00% # Latency to complete the pagewalk
system.gpu.shader_mmu.pagewalkLatency::10            0      0.00%    100.00% # Latency to complete the pagewalk
system.gpu.shader_mmu.pagewalkLatency::11            0      0.00%    100.00% # Latency to complete the pagewalk
system.gpu.shader_mmu.pagewalkLatency::12            0      0.00%    100.00% # Latency to complete the pagewalk
system.gpu.shader_mmu.pagewalkLatency::13            0      0.00%    100.00% # Latency to complete the pagewalk
system.gpu.shader_mmu.pagewalkLatency::14            0      0.00%    100.00% # Latency to complete the pagewalk
system.gpu.shader_mmu.pagewalkLatency::15            0      0.00%    100.00% # Latency to complete the pagewalk
system.gpu.shader_mmu.pagewalkLatency::16            0      0.00%    100.00% # Latency to complete the pagewalk
system.gpu.shader_mmu.pagewalkLatency::17            0      0.00%    100.00% # Latency to complete the pagewalk
system.gpu.shader_mmu.pagewalkLatency::18            0      0.00%    100.00% # Latency to complete the pagewalk
system.gpu.shader_mmu.pagewalkLatency::19            0      0.00%    100.00% # Latency to complete the pagewalk
system.gpu.shader_mmu.pagewalkLatency::20            0      0.00%    100.00% # Latency to complete the pagewalk
system.gpu.shader_mmu.pagewalkLatency::21            0      0.00%    100.00% # Latency to complete the pagewalk
system.gpu.shader_mmu.pagewalkLatency::22            0      0.00%    100.00% # Latency to complete the pagewalk
system.gpu.shader_mmu.pagewalkLatency::23            0      0.00%    100.00% # Latency to complete the pagewalk
system.gpu.shader_mmu.pagewalkLatency::24            0      0.00%    100.00% # Latency to complete the pagewalk
system.gpu.shader_mmu.pagewalkLatency::25            0      0.00%    100.00% # Latency to complete the pagewalk
system.gpu.shader_mmu.pagewalkLatency::26            0      0.00%    100.00% # Latency to complete the pagewalk
system.gpu.shader_mmu.pagewalkLatency::27            0      0.00%    100.00% # Latency to complete the pagewalk
system.gpu.shader_mmu.pagewalkLatency::28            0      0.00%    100.00% # Latency to complete the pagewalk
system.gpu.shader_mmu.pagewalkLatency::29            0      0.00%    100.00% # Latency to complete the pagewalk
system.gpu.shader_mmu.pagewalkLatency::30            0      0.00%    100.00% # Latency to complete the pagewalk
system.gpu.shader_mmu.pagewalkLatency::31            0      0.00%    100.00% # Latency to complete the pagewalk
system.gpu.shader_mmu.pagewalkLatency::total        11002                       # Latency to complete the pagewalk
system.gpu.kernels_started                         63                       # Number of kernels started
system.gpu.kernels_completed                       63                       # Number of kernels completed
system.gpu.ce.device_dtb.hits                       0                       # Number of hits in this TLB
system.gpu.ce.device_dtb.misses                     0                       # Number of misses in this TLB
system.gpu.ce.device_dtb.hitRate                  nan                       # Hit rate for this TLB
system.gpu.ce.host_dtb.hits                     13673                       # Number of hits in this TLB
system.gpu.ce.host_dtb.misses                   11002                       # Number of misses in this TLB
system.gpu.ce.host_dtb.hitRate               0.554124                       # Hit rate for this TLB
system.gpu.ce.numOperations                         3                       # Number of copy/memset operations
system.gpu.ce.opBytesRead                     3158028                       # Number of copy bytes read
system.gpu.ce.opBytesWritten                  3158028                       # Number of copy/memset bytes written
system.gpu.ce.opTimeTicks                  1143189712                       # Total time spent in copy/memset operations
system.gpu.shader_cores0.itb.hits                   0                       # Number of hits in this TLB
system.gpu.shader_cores0.itb.misses                 0                       # Number of misses in this TLB
system.gpu.shader_cores0.itb.hitRate              nan                       # Hit rate for this TLB
system.gpu.shader_cores0.local_loads                0                       # Number of loads from local space
system.gpu.shader_cores0.local_stores               0                       # Number of stores to local space
system.gpu.shader_cores0.shared_loads          327680                       # Number of loads from shared space
system.gpu.shader_cores0.shared_stores         139520                       # Number of stores to shared space
system.gpu.shader_cores0.param_kernel_loads        83904                       # Number of loads from kernel parameter space
system.gpu.shader_cores0.param_local_loads            0                       # Number of loads from local parameter space
system.gpu.shader_cores0.param_local_stores            0                       # Number of stores to local parameter space
system.gpu.shader_cores0.const_loads                0                       # Number of loads from constant space
system.gpu.shader_cores0.tex_loads                  0                       # Number of loads from texture space
system.gpu.shader_cores0.global_loads           73984                       # Number of loads from global space
system.gpu.shader_cores0.global_stores          65536                       # Number of stores to global space
system.gpu.shader_cores0.surf_loads                 0                       # Number of loads from surface space
system.gpu.shader_cores0.generic_loads              0                       # Number of loads from generic spaces (global, shared, local)
system.gpu.shader_cores0.generic_stores             0                       # Number of stores to generic spaces (global, shared, local)
system.gpu.shader_cores0.inst_cache_requests           36                       # Number of instruction cache requests sent
system.gpu.shader_cores0.inst_cache_retries            0                       # Number of instruction cache retries
system.gpu.shader_cores0.inst_counts::0             0                       # Inst counts: 1: ALU, 2: MAD, 3: CTRL, 4: SFU, 5: MEM, 6: TEX, 7: NOP
system.gpu.shader_cores0.inst_counts::1       2222720                       # Inst counts: 1: ALU, 2: MAD, 3: CTRL, 4: SFU, 5: MEM, 6: TEX, 7: NOP
system.gpu.shader_cores0.inst_counts::2             0                       # Inst counts: 1: ALU, 2: MAD, 3: CTRL, 4: SFU, 5: MEM, 6: TEX, 7: NOP
system.gpu.shader_cores0.inst_counts::3        392960                       # Inst counts: 1: ALU, 2: MAD, 3: CTRL, 4: SFU, 5: MEM, 6: TEX, 7: NOP
system.gpu.shader_cores0.inst_counts::4             0                       # Inst counts: 1: ALU, 2: MAD, 3: CTRL, 4: SFU, 5: MEM, 6: TEX, 7: NOP
system.gpu.shader_cores0.inst_counts::5        690624                       # Inst counts: 1: ALU, 2: MAD, 3: CTRL, 4: SFU, 5: MEM, 6: TEX, 7: NOP
[...]
system.ruby.L1Cache_Controller.S.L1_Replacement::total          880                      
system.ruby.L1Cache_Controller.E.Load    |      787682     99.98%     99.98% |           0      0.00%     99.98% |          40      0.01%     99.99% |          36      0.00%     99.99% |          13      0.00%    100.00% |          32      0.00%    100.00% |           0      0.00%    100.00% |           0      0.00%    100.00%
system.ruby.L1Cache_Controller.E.Load::total       787803                      
system.ruby.L1Cache_Controller.E.Store   |         207     17.14%     17.14% |           0      0.00%     17.14% |         222     18.38%     35.51% |         249     20.61%     56.13% |         253     20.94%     77.07% |         277     22.93%    100.00% |           0      0.00%    100.00% |           0      0.00%    100.00%
system.ruby.L1Cache_Controller.E.Store::total         1208                      
system.ruby.L1Cache_Controller.E.Inv     |         221      0.90%      0.90% |           0      0.00%      0.90% |        6356     25.81%     26.70% |        5952     24.17%     50.87% |        6030     24.48%     75.35% |        6071     24.65%    100.00% |           0      0.00%    100.00% |           0      0.00%    100.00%
system.ruby.L1Cache_Controller.E.Inv::total        24630                      
system.ruby.L1Cache_Controller.E.L1_Replacement |        3959      8.94%      8.94% |           0      0.00%      8.94% |        3710      8.38%     17.31% |        4078      9.21%     26.52% |        3954      8.93%     35.45% |        3933      8.88%     44.33% |           0      0.00%     44.33% |       24661     55.67%    100.00%
system.ruby.L1Cache_Controller.E.L1_Replacement::total        44295                      
system.ruby.L1Cache_Controller.E.Fwd_GETX |           0      0.00%      0.00% |           0      0.00%      0.00% |           5     21.74%     21.74% |           5     21.74%     43.48% |           5     21.74%     65.22% |           8     34.78%    100.00% |           0      0.00%    100.00% |           0      0.00%    100.00%
system.ruby.L1Cache_Controller.E.Fwd_GETX::total           23                      
system.ruby.L1Cache_Controller.E.Fwd_GETS |           0      0.00%      0.00% |           0      0.00%      0.00% |          80     22.10%     22.10% |         100     27.62%     49.72% |          97     26.80%     76.52% |          85     23.48%    100.00% |           0      0.00%    100.00% |           0      0.00%    100.00%
system.ruby.L1Cache_Controller.E.Fwd_GETS::total          362                      
system.ruby.L1Cache_Controller.M.Load    |      228376     99.95%     99.95% |           0      0.00%     99.95% |          40      0.02%     99.96% |          35      0.02%     99.98% |          29      0.01%     99.99% |          21      0.01%    100.00% |           0      0.00%    100.00% |           0      0.00%    100.00%
system.ruby.L1Cache_Controller.M.Load::total       228501                      
system.ruby.L1Cache_Controller.M.Store   |      563795     99.98%     99.98% |           0      0.00%     99.98% |          30      0.01%     99.99% |          27      0.00%     99.99% |          15      0.00%    100.00% |          15      0.00%    100.00% |           0      0.00%    100.00% |           0      0.00%    100.00%
system.ruby.L1Cache_Controller.M.Store::total       563882                      
system.ruby.L1Cache_Controller.M.Inv     |         514      5.00%      5.00% |           0      0.00%      5.00% |        2311     22.48%     27.48% |        2586     25.16%     52.64% |        2406     23.40%     76.04% |        2454     23.87%     99.91% |           0      0.00%     99.91% |           9      0.09%    100.00%
system.ruby.L1Cache_Controller.M.Inv::total        10280                      
system.ruby.L1Cache_Controller.M.L1_Replacement |       17555     31.22%     31.22% |           0      0.00%     31.22% |        3615      6.43%     37.65% |        3336      5.93%     43.58% |        3565      6.34%     49.92% |        3498      6.22%     56.15% |           0      0.00%     56.15% |       24658     43.85%    100.00%
system.ruby.L1Cache_Controller.M.L1_Replacement::total        56227                      
system.ruby.L1Cache_Controller.M.Fwd_GETS |           0      0.00%      0.00% |           0      0.00%      0.00% |          60     29.13%     29.13% |          67     32.52%     61.65% |          30     14.56%     76.21% |          49     23.79%    100.00% |           0      0.00%    100.00% |           0      0.00%    100.00%
system.ruby.L1Cache_Controller.M.Fwd_GETS::total          206                      
system.ruby.L1Cache_Controller.IS.Inv    |           6     50.00%     50.00% |           0      0.00%     50.00% |           1      8.33%     58.33% |           1      8.33%     66.67% |           2     16.67%     83.33% |           2     16.67%    100.00% |           0      0.00%    100.00% |           0      0.00%    100.00%
system.ruby.L1Cache_Controller.IS.Inv::total           12                      
system.ruby.L1Cache_Controller.IS.L1_Replacement |           0      0.00%      0.00% |           0      0.00%      0.00% |        2870      0.87%      0.87% |        2470      0.75%      1.63% |        2661      0.81%      2.44% |        2321      0.71%      3.14% |           0      0.00%      3.14% |      318212     96.86%    100.00%
system.ruby.L1Cache_Controller.IS.L1_Replacement::total       328534                      
system.ruby.L1Cache_Controller.IS.Data_Exclusive |        4614      6.52%      6.52% |           0      0.00%      6.52% |       10373     14.66%     21.18% |       10384     14.68%     35.86% |       10339     14.61%     50.48% |       10374     14.66%     65.14% |           0      0.00%     65.14% |       24661     34.86%    100.00%
system.ruby.L1Cache_Controller.IS.Data_Exclusive::total        70745                      
system.ruby.L1Cache_Controller.IS.DataS_fromL1 |           0      0.00%      0.00% |           0      0.00%      0.00% |         142     22.83%     22.83% |         131     21.06%     43.89% |         182     29.26%     73.15% |         153     24.60%     97.75% |           0      0.00%     97.75% |          14      2.25%    100.00%
system.ruby.L1Cache_Controller.IS.DataS_fromL1::total          622                      
system.ruby.L1Cache_Controller.IS.Data_all_Acks |        1240     61.66%     61.66% |           0      0.00%     61.66% |         184      9.15%     70.81% |         182      9.05%     79.86% |         205     10.19%     90.05% |         200      9.95%    100.00% |           0      0.00%    100.00% |           0      0.00%    100.00%
system.ruby.L1Cache_Controller.IS.Data_all_Acks::total         2011                      
system.ruby.L1Cache_Controller.IM.L1_Replacement |           0      0.00%      0.00% |           0      0.00%      0.00% |        4925      1.35%      1.35% |        4432      1.22%      2.57% |        4482      1.23%      3.81% |        4477      1.23%      5.04% |           0      0.00%      5.04% |      345176     94.96%    100.00%
system.ruby.L1Cache_Controller.IM.L1_Replacement::total       363492                      
system.ruby.L1Cache_Controller.IM.Data   |           0      0.00%      0.00% |           0      0.00%      0.00% |          11     28.95%     28.95% |           9     23.68%     52.63% |           8     21.05%     73.68% |          10     26.32%    100.00% |           0      0.00%    100.00% |           0      0.00%    100.00%
system.ruby.L1Cache_Controller.IM.Data::total           38                      
system.ruby.L1Cache_Controller.IM.Data_all_Acks |       17891     27.39%     27.39% |           0      0.00%     27.39% |        5710      8.74%     36.13% |        5697      8.72%     44.85% |        5677      8.69%     53.54% |        5670      8.68%     62.22% |           0      0.00%     62.22% |       24675     37.78%    100.00%
system.ruby.L1Cache_Controller.IM.Data_all_Acks::total        65320                      
system.ruby.L1Cache_Controller.IM.Ack    |           0      0.00%      0.00% |           0      0.00%      0.00% |           0      0.00%      0.00% |           1    100.00%    100.00% |           0      0.00%    100.00% |           0      0.00%    100.00% |           0      0.00%    100.00% |           0      0.00%    100.00%
system.ruby.L1Cache_Controller.IM.Ack::total            1                      
system.ruby.L1Cache_Controller.SM.Ack    |           0      0.00%      0.00% |           0      0.00%      0.00% |          43     22.75%     22.75% |          35     18.52%     41.27% |          64     33.86%     75.13% |          47     24.87%    100.00% |           0      0.00%    100.00% |           0      0.00%    100.00%
system.ruby.L1Cache_Controller.SM.Ack::total          189                      
system.ruby.L1Cache_Controller.SM.Ack_all |           0      0.00%      0.00% |           0      0.00%      0.00% |          54     24.32%     24.32% |          43     19.37%     43.69% |          71     31.98%     75.68% |          54     24.32%    100.00% |           0      0.00%    100.00% |           0      0.00%    100.00%
system.ruby.L1Cache_Controller.SM.Ack_all::total          222                      
system.ruby.L1Cache_Controller.IS_I.Data_all_Acks |           6     50.00%     50.00% |           0      0.00%     50.00% |           1      8.33%     58.33% |           1      8.33%     66.67% |           2     16.67%     83.33% |           2     16.67%    100.00% |           0      0.00%    100.00% |           0      0.00%    100.00%
system.ruby.L1Cache_Controller.IS_I.Data_all_Acks::total           12                      
system.ruby.L1Cache_Controller.M_I.Load  |           0      0.00%      0.00% |           0      0.00%      0.00% |           0      0.00%      0.00% |           2     25.00%     25.00% |           2     25.00%     50.00% |           4     50.00%    100.00% |           0      0.00%    100.00% |           0      0.00%    100.00%
system.ruby.L1Cache_Controller.M_I.Load::total            8                      
system.ruby.L1Cache_Controller.M_I.Ifetch |           1    100.00%    100.00% |           0      0.00%    100.00% |           0      0.00%    100.00% |           0      0.00%    100.00% |           0      0.00%    100.00% |           0      0.00%    100.00% |           0      0.00%    100.00% |           0      0.00%    100.00%
system.ruby.L1Cache_Controller.M_I.Ifetch::total            1                      
system.ruby.L1Cache_Controller.M_I.Store |           0      0.00%      0.00% |           0      0.00%      0.00% |           0      0.00%      0.00% |           0      0.00%      0.00% |           3    100.00%    100.00% |           0      0.00%    100.00% |           0      0.00%    100.00% |           0      0.00%    100.00%
system.ruby.L1Cache_Controller.M_I.Store::total            3                      
system.ruby.L1Cache_Controller.M_I.Inv   |           0      0.00%      0.00% |           0      0.00%      0.00% |         329     21.35%     21.35% |         391     25.37%     46.72% |         411     26.67%     73.39% |         410     26.61%    100.00% |           0      0.00%    100.00% |           0      0.00%    100.00%
system.ruby.L1Cache_Controller.M_I.Inv::total         1541                      
system.ruby.L1Cache_Controller.M_I.Fwd_GETX |           0      0.00%      0.00% |           0      0.00%      0.00% |           0      0.00%      0.00% |           0      0.00%      0.00% |           1    100.00%    100.00% |           0      0.00%    100.00% |           0      0.00%    100.00% |           0      0.00%    100.00%
system.ruby.L1Cache_Controller.M_I.Fwd_GETX::total            1                      
system.ruby.L1Cache_Controller.M_I.Fwd_GETS |           0      0.00%      0.00% |           0      0.00%      0.00% |          12     22.22%     22.22% |          27     50.00%     72.22% |          11     20.37%     92.59% |           4      7.41%    100.00% |           0      0.00%    100.00% |           0      0.00%    100.00%
system.ruby.L1Cache_Controller.M_I.Fwd_GETS::total           54                      
system.ruby.L1Cache_Controller.M_I.WB_Ack |       21514     21.75%     21.75% |           0      0.00%     21.75% |        6984      7.06%     28.81% |        6996      7.07%     35.88% |        7096      7.17%     43.05% |        7017      7.09%     50.15% |           0      0.00%     50.15% |       49319     49.85%    100.00%
system.ruby.L1Cache_Controller.M_I.WB_Ack::total        98926                      
system.ruby.L1Cache_Controller.SINK_WB_ACK.Load |           0      0.00%      0.00% |           0      0.00%      0.00% |           0      0.00%      0.00% |           0      0.00%      0.00% |           1    100.00%    100.00% |           0      0.00%    100.00% |           0      0.00%    100.00% |           0      0.00%    100.00%
system.ruby.L1Cache_Controller.SINK_WB_ACK.Load::total            1                      
system.ruby.L1Cache_Controller.SINK_WB_ACK.Store |           0      0.00%      0.00% |           0      0.00%      0.00% |           1    100.00%    100.00% |           0      0.00%    100.00% |           0      0.00%    100.00% |           0      0.00%    100.00% |           0      0.00%    100.00% |           0      0.00%    100.00%
system.ruby.L1Cache_Controller.SINK_WB_ACK.Store::total            1                      
system.ruby.L1Cache_Controller.SINK_WB_ACK.WB_Ack |           0      0.00%      0.00% |           0      0.00%      0.00% |         341     21.37%     21.37% |         418     26.19%     47.56% |         423     26.50%     74.06% |         414     25.94%    100.00% |           0      0.00%    100.00% |           0      0.00%    100.00%
system.ruby.L1Cache_Controller.SINK_WB_ACK.WB_Ack::total         1596                      
system.ruby.L2Cache_Controller.L1_GET_INSTR         1404      0.00%      0.00%
system.ruby.L2Cache_Controller.L1_GETS          72072      0.00%      0.00%
system.ruby.L2Cache_Controller.L1_GETX          65402      0.00%      0.00%
system.ruby.L2Cache_Controller.L1_UPGRADE          184      0.00%      0.00%
system.ruby.L2Cache_Controller.L1_PUTX          99005      0.00%      0.00%
system.ruby.L2Cache_Controller.L1_PUTX_old         1813      0.00%      0.00%
system.ruby.L2Cache_Controller.L2_Replacement        54312      0.00%      0.00%
system.ruby.L2Cache_Controller.L2_Replacement_clean        84926      0.00%      0.00%
system.ruby.L2Cache_Controller.Mem_Data        135567      0.00%      0.00%
system.ruby.L2Cache_Controller.Mem_Ack         133519      0.00%      0.00%
system.ruby.L2Cache_Controller.WB_Data          11761      0.00%      0.00%
system.ruby.L2Cache_Controller.WB_Data_clean          682      0.00%      0.00%
system.ruby.L2Cache_Controller.Ack                812      0.00%      0.00%
system.ruby.L2Cache_Controller.Ack_all          26436      0.00%      0.00%
system.ruby.L2Cache_Controller.Unblock            622      0.00%      0.00%
system.ruby.L2Cache_Controller.Exclusive_Unblock       136287      0.00%      0.00%
system.ruby.L2Cache_Controller.NP.L1_GET_INSTR         1245      0.00%      0.00%
system.ruby.L2Cache_Controller.NP.L1_GETS        69558      0.00%      0.00%
system.ruby.L2Cache_Controller.NP.L1_GETX        64764      0.00%      0.00%
system.ruby.L2Cache_Controller.NP.L1_PUTX_old          648      0.00%      0.00%
system.ruby.L2Cache_Controller.SS.L1_GET_INSTR          113      0.00%      0.00%
system.ruby.L2Cache_Controller.SS.L1_GETS           33      0.00%      0.00%
system.ruby.L2Cache_Controller.SS.L1_GETX           39      0.00%      0.00%
system.ruby.L2Cache_Controller.SS.L1_UPGRADE          184      0.00%      0.00%
system.ruby.L2Cache_Controller.SS.L1_PUTX           54      0.00%      0.00%
system.ruby.L2Cache_Controller.SS.L2_Replacement           66      0.00%      0.00%
system.ruby.L2Cache_Controller.SS.L2_Replacement_clean         1740      0.00%      0.00%
system.ruby.L2Cache_Controller.M.L1_GET_INSTR            1      0.00%      0.00%
system.ruby.L2Cache_Controller.M.L1_GETS         1487      0.00%      0.00%
system.ruby.L2Cache_Controller.M.L1_GETX          531      0.00%      0.00%
system.ruby.L2Cache_Controller.M.L2_Replacement        54047      0.00%      0.00%
system.ruby.L2Cache_Controller.M.L2_Replacement_clean        41215      0.00%      0.00%
system.ruby.L2Cache_Controller.MT.L1_GETS          622      0.00%      0.00%
system.ruby.L2Cache_Controller.MT.L1_GETX           24      0.00%      0.00%
system.ruby.L2Cache_Controller.MT.L1_PUTX        98926      0.00%      0.00%
system.ruby.L2Cache_Controller.MT.L1_PUTX_old            1      0.00%      0.00%
system.ruby.L2Cache_Controller.MT.L2_Replacement          199      0.00%      0.00%
system.ruby.L2Cache_Controller.MT.L2_Replacement_clean        36252      0.00%      0.00%
system.ruby.L2Cache_Controller.M_I.L1_GET_INSTR           14      0.00%      0.00%
system.ruby.L2Cache_Controller.M_I.L1_GETS           62      0.00%      0.00%
system.ruby.L2Cache_Controller.M_I.L1_GETX           44      0.00%      0.00%
system.ruby.L2Cache_Controller.M_I.L1_PUTX_old          884      0.00%      0.00%
system.ruby.L2Cache_Controller.M_I.Mem_Ack       133519      0.00%      0.00%
system.ruby.L2Cache_Controller.MT_I.WB_Data          167      0.00%      0.00%
system.ruby.L2Cache_Controller.MT_I.Ack_all           32      0.00%      0.00%
system.ruby.L2Cache_Controller.MCT_I.L1_GETS            8      0.00%      0.00%
system.ruby.L2Cache_Controller.MCT_I.L1_PUTX_old          271      0.00%      0.00%
system.ruby.L2Cache_Controller.MCT_I.WB_Data        11357      0.00%      0.00%
system.ruby.L2Cache_Controller.MCT_I.WB_Data_clean          297      0.00%      0.00%
system.ruby.L2Cache_Controller.MCT_I.Ack_all        24598      0.00%      0.00%
system.ruby.L2Cache_Controller.I_I.Ack            746      0.00%      0.00%
system.ruby.L2Cache_Controller.I_I.Ack_all         1740      0.00%      0.00%
system.ruby.L2Cache_Controller.S_I.Ack             66      0.00%      0.00%
system.ruby.L2Cache_Controller.S_I.Ack_all           66      0.00%      0.00%
system.ruby.L2Cache_Controller.ISS.L1_GETS          300      0.00%      0.00%
system.ruby.L2Cache_Controller.ISS.L1_PUTX_old            9      0.00%      0.00%
system.ruby.L2Cache_Controller.ISS.L2_Replacement_clean         5025      0.00%      0.00%
system.ruby.L2Cache_Controller.ISS.Mem_Data        69258      0.00%      0.00%
system.ruby.L2Cache_Controller.IS.L1_GET_INSTR           31      0.00%      0.00%
system.ruby.L2Cache_Controller.IS.L2_Replacement_clean           48      0.00%      0.00%
system.ruby.L2Cache_Controller.IS.Mem_Data         1545      0.00%      0.00%
system.ruby.L2Cache_Controller.IM.L2_Replacement_clean          408      0.00%      0.00%
system.ruby.L2Cache_Controller.IM.Mem_Data        64764      0.00%      0.00%
system.ruby.L2Cache_Controller.SS_MB.Exclusive_Unblock          223      0.00%      0.00%
system.ruby.L2Cache_Controller.MT_MB.L1_GETS            2      0.00%      0.00%
system.ruby.L2Cache_Controller.MT_MB.L2_Replacement_clean          238      0.00%      0.00%
system.ruby.L2Cache_Controller.MT_MB.Exclusive_Unblock       136064      0.00%      0.00%
system.ruby.L2Cache_Controller.MT_IIB.L1_PUTX           25      0.00%      0.00%
system.ruby.L2Cache_Controller.MT_IIB.WB_Data           18      0.00%      0.00%
system.ruby.L2Cache_Controller.MT_IIB.WB_Data_clean           23      0.00%      0.00%
system.ruby.L2Cache_Controller.MT_IIB.Unblock          581      0.00%      0.00%
system.ruby.L2Cache_Controller.MT_IB.WB_Data          219      0.00%      0.00%
system.ruby.L2Cache_Controller.MT_IB.WB_Data_clean          362      0.00%      0.00%
system.ruby.L2Cache_Controller.MT_SB.Unblock           41      0.00%      0.00%

---------- End Simulation Statistics   ----------
