
---------- Begin Simulation Statistics ----------
sim_seconds                                  0.145736                       # Number of seconds simulated
sim_ticks                                145735574000                       # Number of ticks simulated
final_tick                               145742777500                       # Number of ticks from beginning of simulation (restored from checkpoints and never reset)
sim_freq                                 1000000000000                       # Frequency of simulated ticks
host_inst_rate                                  25471                       # Simulator instruction rate (inst/s)
host_op_rate                                    42534                       # Simulator op (including micro ops) rate (op/s)
host_tick_rate                               72255232                       # Simulator tick rate (ticks/s)
host_mem_usage                                1680596                       # Number of bytes of host memory used
host_seconds                                  2016.96                       # Real time elapsed on the host
sim_insts                                    51374534                       # Number of instructions simulated
sim_ops                                      85788684                       # Number of ops (including micro ops) simulated
system.voltage_domain.voltage                       1                       # Voltage in Volts
system.clk_domain.clock                          1000                       # Clock period in ticks
system.mem_ctrls.bytes_read::ruby.dir_cntrl0    276204416                       # Number of bytes read from this memory
system.mem_ctrls.bytes_read::total          276204416                       # Number of bytes read from this memory
system.mem_ctrls.bytes_written::ruby.dir_cntrl0    133783936                       # Number of bytes written to this memory
system.mem_ctrls.bytes_written::total       133783936                       # Number of bytes written to this memory
system.mem_ctrls.num_reads::ruby.dir_cntrl0      2157847                       # Number of read requests responded to by this memory
system.mem_ctrls.num_reads::total             2157847                       # Number of read requests responded to by this memory
system.mem_ctrls.num_writes::ruby.dir_cntrl0      1045187                       # Number of write requests responded to by this memory
system.mem_ctrls.num_writes::total            1045187                       # Number of write requests responded to by this memory
system.mem_ctrls.bw_read::ruby.dir_cntrl0   1895243614                       # Total read bandwidth from this memory (bytes/s)
system.mem_ctrls.bw_read::total            1895243614                       # Total read bandwidth from this memory (bytes/s)
system.mem_ctrls.bw_write::ruby.dir_cntrl0    917990936                       # Write bandwidth from this memory (bytes/s)
system.mem_ctrls.bw_write::total            917990936                       # Write bandwidth from this memory (bytes/s)
system.mem_ctrls.bw_total::ruby.dir_cntrl0   2813234550                       # Total bandwidth to/from this memory (bytes/s)
system.mem_ctrls.bw_total::total           2813234550                       # Total bandwidth to/from this memory (bytes/s)
system.mem_ctrls.readReqs                     2157847                       # Number of read requests accepted
system.mem_ctrls.writeReqs                    1045187                       # Number of write requests accepted
system.mem_ctrls.readBursts                   4315694                       # Number of DRAM read bursts, including those serviced by the write queue
system.mem_ctrls.writeBursts                  2090374                       # Number of DRAM write bursts, including those merged in the write queue
system.mem_ctrls.bytesReadDRAM              275999104                       # Total number of bytes read from DRAM
system.mem_ctrls.bytesReadWrQ                  205312                       # Total number of bytes read from write queue
system.mem_ctrls.bytesWritten               133779200                       # Total number of bytes written to DRAM
system.mem_ctrls.bytesReadSys               276204416                       # Total read bytes from the system interface side
system.mem_ctrls.bytesWrittenSys            133783936                       # Total written bytes from the system interface side
system.mem_ctrls.servicedByWrQ                   3208                       # Number of DRAM read bursts serviced by the write queue
system.mem_ctrls.mergedWrBursts                    45                       # Number of DRAM write bursts merged with an existing one
system.mem_ctrls.neitherReadNorWriteReqs            0                       # Number of requests that are neither read nor write
system.mem_ctrls.perBankRdBursts::0            267444                       # Per bank write bursts
system.mem_ctrls.perBankRdBursts::1            267244                       # Per bank write bursts
system.mem_ctrls.perBankRdBursts::2            270997                       # Per bank write bursts
system.mem_ctrls.perBankRdBursts::3            270230                       # Per bank write bursts
system.mem_ctrls.perBankRdBursts::4            266602                       # Per bank write bursts
system.mem_ctrls.perBankRdBursts::5            266524                       # Per bank write bursts
system.mem_ctrls.perBankRdBursts::6            264611                       # Per bank write bursts
system.mem_ctrls.perBankRdBursts::7            253984                       # Per bank write bursts
system.mem_ctrls.perBankRdBursts::8            264102                       # Per bank write bursts
system.mem_ctrls.perBankRdBursts::9            258267                       # Per bank write bursts
system.mem_ctrls.perBankRdBursts::10           292303                       # Per bank write bursts
system.mem_ctrls.perBankRdBursts::11           303492                       # Per bank write bursts
system.mem_ctrls.perBankRdBursts::12           266706                       # Per bank write bursts
system.mem_ctrls.perBankRdBursts::13           266590                       # Per bank write bursts
system.mem_ctrls.perBankRdBursts::14           266552                       # Per bank write bursts
system.mem_ctrls.perBankRdBursts::15           266838                       # Per bank write bursts
system.mem_ctrls.perBankWrBursts::0            131586                       # Per bank write bursts
system.mem_ctrls.perBankWrBursts::1            131804                       # Per bank write bursts
system.mem_ctrls.perBankWrBursts::2            131786                       # Per bank write bursts
system.mem_ctrls.perBankWrBursts::3            131842                       # Per bank write bursts
system.mem_ctrls.perBankWrBursts::4            131646                       # Per bank write bursts
system.mem_ctrls.perBankWrBursts::5            131706                       # Per bank write bursts
system.mem_ctrls.perBankWrBursts::6            131708                       # Per bank write bursts
system.mem_ctrls.perBankWrBursts::7            131644                       # Per bank write bursts
system.mem_ctrls.perBankWrBursts::8            131609                       # Per bank write bursts
system.mem_ctrls.perBankWrBursts::9            123464                       # Per bank write bursts
system.mem_ctrls.perBankWrBursts::10           122888                       # Per bank write bursts
system.mem_ctrls.perBankWrBursts::11           132010                       # Per bank write bursts
system.mem_ctrls.perBankWrBursts::12           131725                       # Per bank write bursts
system.mem_ctrls.perBankWrBursts::13           131614                       # Per bank write bursts
system.mem_ctrls.perBankWrBursts::14           131616                       # Per bank write bursts
system.mem_ctrls.perBankWrBursts::15           131652                       # Per bank write bursts
system.mem_ctrls.numRdRetry                   1558949                       # Number of times read queue was full causing retry
system.mem_ctrls.numWrRetry                     16494                       # Number of times write queue was full causing retry
system.mem_ctrls.totGap                  145735754500                       # Total gap between requests
system.mem_ctrls.readPktSize::0                     0                       # Read request sizes (log2)
system.mem_ctrls.readPktSize::1                     0                       # Read request sizes (log2)
system.mem_ctrls.readPktSize::2                     0                       # Read request sizes (log2)
system.mem_ctrls.readPktSize::3                     0                       # Read request sizes (log2)
system.mem_ctrls.readPktSize::4                     0                       # Read request sizes (log2)
system.mem_ctrls.readPktSize::5                     0                       # Read request sizes (log2)
system.mem_ctrls.readPktSize::6               4315694                       # Read request sizes (log2)
system.mem_ctrls.writePktSize::0                    0                       # Write request sizes (log2)
system.mem_ctrls.writePktSize::1                    0                       # Write request sizes (log2)
system.mem_ctrls.writePktSize::2                    0                       # Write request sizes (log2)
system.mem_ctrls.writePktSize::3                    0                       # Write request sizes (log2)
system.mem_ctrls.writePktSize::4                    0                       # Write request sizes (log2)
system.mem_ctrls.writePktSize::5                    0                       # Write request sizes (log2)
system.mem_ctrls.writePktSize::6              2090374                       # Write request sizes (log2)
system.mem_ctrls.rdQLenPdf::0                  334787                       # What read queue length does an incoming req see
system.mem_ctrls.rdQLenPdf::1                  346114                       # What read queue length does an incoming req see
system.mem_ctrls.rdQLenPdf::2                   87591                       # What read queue length does an incoming req see
system.mem_ctrls.rdQLenPdf::3                  112175                       # What read queue length does an incoming req see
system.mem_ctrls.rdQLenPdf::4                  167917                       # What read queue length does an incoming req see
system.mem_ctrls.rdQLenPdf::5                  191386                       # What read queue length does an incoming req see
system.mem_ctrls.rdQLenPdf::6                  205016                       # What read queue length does an incoming req see
system.mem_ctrls.rdQLenPdf::7                  192040                       # What read queue length does an incoming req see
system.mem_ctrls.rdQLenPdf::8                  152539                       # What read queue length does an incoming req see
system.mem_ctrls.rdQLenPdf::9                  131540                       # What read queue length does an incoming req see
system.mem_ctrls.rdQLenPdf::10                 112329                       # What read queue length does an incoming req see
system.mem_ctrls.rdQLenPdf::11                 102180                       # What read queue length does an incoming req see
system.mem_ctrls.rdQLenPdf::12                  83293                       # What read queue length does an incoming req see
system.mem_ctrls.rdQLenPdf::13                  73528                       # What read queue length does an incoming req see
system.mem_ctrls.rdQLenPdf::14                  47656                       # What read queue length does an incoming req see
system.mem_ctrls.rdQLenPdf::15                  47334                       # What read queue length does an incoming req see
system.mem_ctrls.rdQLenPdf::16                  16966                       # What read queue length does an incoming req see
system.mem_ctrls.rdQLenPdf::17                  18067                       # What read queue length does an incoming req see
system.mem_ctrls.rdQLenPdf::18                  18268                       # What read queue length does an incoming req see
system.mem_ctrls.rdQLenPdf::19                  19324                       # What read queue length does an incoming req see
system.mem_ctrls.rdQLenPdf::20                  19957                       # What read queue length does an incoming req see
system.mem_ctrls.rdQLenPdf::21                  21514                       # What read queue length does an incoming req see
system.mem_ctrls.rdQLenPdf::22                  21820                       # What read queue length does an incoming req see
system.mem_ctrls.rdQLenPdf::23                  22853                       # What read queue length does an incoming req see
system.mem_ctrls.rdQLenPdf::24                  23301                       # What read queue length does an incoming req see
system.mem_ctrls.rdQLenPdf::25                  24668                       # What read queue length does an incoming req see
system.mem_ctrls.rdQLenPdf::26                  25180                       # What read queue length does an incoming req see
system.mem_ctrls.rdQLenPdf::27                  26082                       # What read queue length does an incoming req see
system.mem_ctrls.rdQLenPdf::28                  26459                       # What read queue length does an incoming req see
system.mem_ctrls.rdQLenPdf::29                  27391                       # What read queue length does an incoming req see
system.mem_ctrls.rdQLenPdf::30                 813173                       # What read queue length does an incoming req see
system.mem_ctrls.rdQLenPdf::31                 800038                       # What read queue length does an incoming req see
system.mem_ctrls.wrQLenPdf::0                       1                       # What write queue length does an incoming req see
system.mem_ctrls.wrQLenPdf::1                       1                       # What write queue length does an incoming req see
system.mem_ctrls.wrQLenPdf::2                       1                       # What write queue length does an incoming req see
system.mem_ctrls.wrQLenPdf::3                       1                       # What write queue length does an incoming req see
system.mem_ctrls.wrQLenPdf::4                       1                       # What write queue length does an incoming req see
system.mem_ctrls.wrQLenPdf::5                       1                       # What write queue length does an incoming req see
system.mem_ctrls.wrQLenPdf::6                       1                       # What write queue length does an incoming req see
system.mem_ctrls.wrQLenPdf::7                       1                       # What write queue length does an incoming req see
system.mem_ctrls.wrQLenPdf::8                       1                       # What write queue length does an incoming req see
system.mem_ctrls.wrQLenPdf::9                       1                       # What write queue length does an incoming req see
system.mem_ctrls.wrQLenPdf::10                      1                       # What write queue length does an incoming req see
system.mem_ctrls.wrQLenPdf::11                      1                       # What write queue length does an incoming req see
system.mem_ctrls.wrQLenPdf::12                      1                       # What write queue length does an incoming req see
system.mem_ctrls.wrQLenPdf::13                      1                       # What write queue length does an incoming req see
system.mem_ctrls.wrQLenPdf::14                      1                       # What write queue length does an incoming req see
system.mem_ctrls.wrQLenPdf::15                   1178                       # What write queue length does an incoming req see
system.mem_ctrls.wrQLenPdf::16                   1413                       # What write queue length does an incoming req see
system.mem_ctrls.wrQLenPdf::17                  33606                       # What write queue length does an incoming req see
system.mem_ctrls.wrQLenPdf::18                  34557                       # What write queue length does an incoming req see
system.mem_ctrls.wrQLenPdf::19                  35163                       # What write queue length does an incoming req see
system.mem_ctrls.wrQLenPdf::20                  38959                       # What write queue length does an incoming req see
system.mem_ctrls.wrQLenPdf::21                  41252                       # What write queue length does an incoming req see
system.mem_ctrls.wrQLenPdf::22                  52614                       # What write queue length does an incoming req see
system.mem_ctrls.wrQLenPdf::23                  60903                       # What write queue length does an incoming req see
system.mem_ctrls.wrQLenPdf::24                  85012                       # What write queue length does an incoming req see
system.mem_ctrls.wrQLenPdf::25                  87019                       # What write queue length does an incoming req see
system.mem_ctrls.wrQLenPdf::26                 100209                       # What write queue length does an incoming req see
system.mem_ctrls.wrQLenPdf::27                 103473                       # What write queue length does an incoming req see
system.mem_ctrls.wrQLenPdf::28                 110013                       # What write queue length does an incoming req see
system.mem_ctrls.wrQLenPdf::29                 113387                       # What write queue length does an incoming req see
system.mem_ctrls.wrQLenPdf::30                 115735                       # What write queue length does an incoming req see
system.mem_ctrls.wrQLenPdf::31                 111476                       # What write queue length does an incoming req see
system.mem_ctrls.wrQLenPdf::32                 112175                       # What write queue length does an incoming req see
system.mem_ctrls.wrQLenPdf::33                  77120                       # What write queue length does an incoming req see
system.mem_ctrls.wrQLenPdf::34                  23215                       # What write queue length does an incoming req see
system.mem_ctrls.wrQLenPdf::35                  13786                       # What write queue length does an incoming req see
system.mem_ctrls.wrQLenPdf::36                   8704                       # What write queue length does an incoming req see
system.mem_ctrls.wrQLenPdf::37                   6969                       # What write queue length does an incoming req see
system.mem_ctrls.wrQLenPdf::38                   5082                       # What write queue length does an incoming req see
system.mem_ctrls.wrQLenPdf::39                   7427                       # What write queue length does an incoming req see
system.mem_ctrls.wrQLenPdf::40                   7360                       # What write queue length does an incoming req see
system.mem_ctrls.wrQLenPdf::41                  10733                       # What write queue length does an incoming req see
system.mem_ctrls.wrQLenPdf::42                  11546                       # What write queue length does an incoming req see
system.mem_ctrls.wrQLenPdf::43                  15851                       # What write queue length does an incoming req see
system.mem_ctrls.wrQLenPdf::44                  17269                       # What write queue length does an incoming req see
system.mem_ctrls.wrQLenPdf::45                  22567                       # What write queue length does an incoming req see
system.mem_ctrls.wrQLenPdf::46                  24086                       # What write queue length does an incoming req see
system.mem_ctrls.wrQLenPdf::47                  30045                       # What write queue length does an incoming req see
system.mem_ctrls.wrQLenPdf::48                  32270                       # What write queue length does an incoming req see
system.mem_ctrls.wrQLenPdf::49                  38189                       # What write queue length does an incoming req see
system.mem_ctrls.wrQLenPdf::50                  41177                       # What write queue length does an incoming req see
system.mem_ctrls.wrQLenPdf::51                  47832                       # What write queue length does an incoming req see
system.mem_ctrls.wrQLenPdf::52                  52069                       # What write queue length does an incoming req see
system.mem_ctrls.wrQLenPdf::53                  60153                       # What write queue length does an incoming req see
system.mem_ctrls.wrQLenPdf::54                  68831                       # What write queue length does an incoming req see
system.mem_ctrls.wrQLenPdf::55                  55466                       # What write queue length does an incoming req see
system.mem_ctrls.wrQLenPdf::56                  47413                       # What write queue length does an incoming req see
system.mem_ctrls.wrQLenPdf::57                  34066                       # What write queue length does an incoming req see
system.mem_ctrls.wrQLenPdf::58                  26424                       # What write queue length does an incoming req see
system.mem_ctrls.wrQLenPdf::59                  17515                       # What write queue length does an incoming req see
system.mem_ctrls.wrQLenPdf::60                  13199                       # What write queue length does an incoming req see
system.mem_ctrls.wrQLenPdf::61                   8676                       # What write queue length does an incoming req see
system.mem_ctrls.wrQLenPdf::62                  15825                       # What write queue length does an incoming req see
system.mem_ctrls.wrQLenPdf::63                  11305                       # What write queue length does an incoming req see
system.mem_ctrls.bytesPerActivate::samples      1544223                       # Bytes accessed per row activation
system.mem_ctrls.bytesPerActivate::mean    265.362130                       # Bytes accessed per row activation
system.mem_ctrls.bytesPerActivate::gmean   191.575000                       # Bytes accessed per row activation
system.mem_ctrls.bytesPerActivate::stdev   277.613594                       # Bytes accessed per row activation
system.mem_ctrls.bytesPerActivate::0-127        34841      2.26%      2.26% # Bytes accessed per row activation
system.mem_ctrls.bytesPerActivate::128-255       993829     64.36%     66.61% # Bytes accessed per row activation
system.mem_ctrls.bytesPerActivate::256-383       268611     17.39%     84.01% # Bytes accessed per row activation
system.mem_ctrls.bytesPerActivate::384-511        22881      1.48%     85.49% # Bytes accessed per row activation
system.mem_ctrls.bytesPerActivate::512-639        28083      1.82%     87.31% # Bytes accessed per row activation
system.mem_ctrls.bytesPerActivate::640-767        18652      1.21%     88.52% # Bytes accessed per row activation
system.mem_ctrls.bytesPerActivate::768-895        15767      1.02%     89.54% # Bytes accessed per row activation
system.mem_ctrls.bytesPerActivate::896-1023        17212      1.11%     90.65% # Bytes accessed per row activation
system.mem_ctrls.bytesPerActivate::1024-1151       144347      9.35%    100.00% # Bytes accessed per row activation
system.mem_ctrls.bytesPerActivate::total      1544223                       # Bytes accessed per row activation
system.mem_ctrls.rdPerTurnAround::samples       130267                       # Reads before turning the bus around for writes
system.mem_ctrls.rdPerTurnAround::mean      33.097055                       # Reads before turning the bus around for writes
system.mem_ctrls.rdPerTurnAround::gmean     22.513614                       # Reads before turning the bus around for writes
system.mem_ctrls.rdPerTurnAround::stdev    116.068776                       # Reads before turning the bus around for writes
system.mem_ctrls.rdPerTurnAround::0-1023       129804     99.64%     99.64% # Reads before turning the bus around for writes
system.mem_ctrls.rdPerTurnAround::1024-2047          458      0.35%    100.00% # Reads before turning the bus around for writes
system.mem_ctrls.rdPerTurnAround::2048-3071            1      0.00%    100.00% # Reads before turning the bus around for writes
system.mem_ctrls.rdPerTurnAround::3072-4095            1      0.00%    100.00% # Reads before turning the bus around for writes
system.mem_ctrls.rdPerTurnAround::7168-8191            2      0.00%    100.00% # Reads before turning the bus around for writes
system.mem_ctrls.rdPerTurnAround::23552-24575            1      0.00%    100.00% # Reads before turning the bus around for writes
system.mem_ctrls.rdPerTurnAround::total        130267                       # Reads before turning the bus around for writes
system.mem_ctrls.wrPerTurnAround::samples       130267                       # Writes before turning the bus around for reads
system.mem_ctrls.wrPerTurnAround::mean      16.046274                       # Writes before turning the bus around for reads
system.mem_ctrls.wrPerTurnAround::gmean     16.037988                       # Writes before turning the bus around for reads
system.mem_ctrls.wrPerTurnAround::stdev      0.637055                       # Writes before turning the bus around for reads
system.mem_ctrls.wrPerTurnAround::16           128696     98.79%     98.79% # Writes before turning the bus around for reads
system.mem_ctrls.wrPerTurnAround::17               48      0.04%     98.83% # Writes before turning the bus around for reads
system.mem_ctrls.wrPerTurnAround::18             1142      0.88%     99.71% # Writes before turning the bus around for reads
system.mem_ctrls.wrPerTurnAround::19               43      0.03%     99.74% # Writes before turning the bus around for reads
system.mem_ctrls.wrPerTurnAround::20               55      0.04%     99.78% # Writes before turning the bus around for reads
system.mem_ctrls.wrPerTurnAround::21               20      0.02%     99.80% # Writes before turning the bus around for reads
system.mem_ctrls.wrPerTurnAround::22               31      0.02%     99.82% # Writes before turning the bus around for reads
system.mem_ctrls.wrPerTurnAround::23               11      0.01%     99.83% # Writes before turning the bus around for reads
system.mem_ctrls.wrPerTurnAround::24               44      0.03%     99.86% # Writes before turning the bus around for reads
system.mem_ctrls.wrPerTurnAround::25               14      0.01%     99.87% # Writes before turning the bus around for reads
system.mem_ctrls.wrPerTurnAround::26               24      0.02%     99.89% # Writes before turning the bus around for reads
system.mem_ctrls.wrPerTurnAround::27                5      0.00%     99.90% # Writes before turning the bus around for reads
system.mem_ctrls.wrPerTurnAround::28               26      0.02%     99.92% # Writes before turning the bus around for reads
system.mem_ctrls.wrPerTurnAround::29                6      0.00%     99.92% # Writes before turning the bus around for reads
system.mem_ctrls.wrPerTurnAround::30               19      0.01%     99.94% # Writes before turning the bus around for reads
system.mem_ctrls.wrPerTurnAround::31                4      0.00%     99.94% # Writes before turning the bus around for reads
system.mem_ctrls.wrPerTurnAround::32               25      0.02%     99.96% # Writes before turning the bus around for reads
system.mem_ctrls.wrPerTurnAround::33                3      0.00%     99.96% # Writes before turning the bus around for reads
system.mem_ctrls.wrPerTurnAround::34               10      0.01%     99.97% # Writes before turning the bus around for reads
system.mem_ctrls.wrPerTurnAround::35                3      0.00%     99.97% # Writes before turning the bus around for reads
system.mem_ctrls.wrPerTurnAround::36               15      0.01%     99.98% # Writes before turning the bus around for reads
system.mem_ctrls.wrPerTurnAround::37                2      0.00%     99.98% # Writes before turning the bus around for reads
system.mem_ctrls.wrPerTurnAround::38               18      0.01%    100.00% # Writes before turning the bus around for reads
system.mem_ctrls.wrPerTurnAround::39                3      0.00%    100.00% # Writes before turning the bus around for reads
system.mem_ctrls.wrPerTurnAround::total        130267                       # Writes before turning the bus around for reads
system.mem_ctrls.totQLat                 551588569888                       # Total ticks spent queuing
system.mem_ctrls.totMemAccLat            632447682388                       # Total ticks spent from burst creation until serviced by the DRAM
system.mem_ctrls.totBusLat                21562430000                       # Total ticks spent in databus transfers
system.mem_ctrls.avgQLat                    127905.01                       # Average queueing delay per DRAM burst
system.mem_ctrls.avgBusLat                    5000.00                       # Average bus latency per DRAM burst
system.mem_ctrls.avgMemAccLat               146655.01                       # Average memory access latency per DRAM burst
system.mem_ctrls.avgRdBW                      1893.83                       # Average DRAM read bandwidth in MiByte/s
system.mem_ctrls.avgWrBW                       917.96                       # Average achieved write bandwidth in MiByte/s
system.mem_ctrls.avgRdBWSys                   1895.24                       # Average system read bandwidth in MiByte/s
system.mem_ctrls.avgWrBWSys                    917.99                       # Average system write bandwidth in MiByte/s
system.mem_ctrls.peakBW                      12800.00                       # Theoretical peak bandwidth in MiByte/s
system.mem_ctrls.busUtil                        21.97                       # Data bus utilization in percentage
system.mem_ctrls.busUtilRead                    14.80                       # Data bus utilization in percentage for reads
system.mem_ctrls.busUtilWrite                    7.17                       # Data bus utilization in percentage for writes
system.mem_ctrls.avgRdQLen                       6.17                       # Average read queue length when enqueuing
system.mem_ctrls.avgWrQLen                      29.83                       # Average write queue length when enqueuing
system.mem_ctrls.readRowHits                  3196318                       # Number of row buffer hits during reads
system.mem_ctrls.writeRowHits                 1662247                       # Number of row buffer hits during writes
system.mem_ctrls.readRowHitRate                 74.12                       # Row buffer hit rate for reads
system.mem_ctrls.writeRowHitRate                79.52                       # Row buffer hit rate for writes
system.mem_ctrls.avgGap                      45499.28                       # Average gap between requests
system.mem_ctrls.pageHitRate                    75.88                       # Row buffer hit rate, read and write combined
system.mem_ctrls_0.actEnergy               5753462400                       # Energy for activate commands per rank (pJ)
system.mem_ctrls_0.preEnergy               3139290000                       # Energy for precharge commands per rank (pJ)
system.mem_ctrls_0.readEnergy             16595810400                       # Energy for read commands per rank (pJ)
system.mem_ctrls_0.writeEnergy             6828118560                       # Energy for write commands per rank (pJ)
system.mem_ctrls_0.refreshEnergy           9518717520                       # Energy for refresh commands per rank (pJ)
system.mem_ctrls_0.actBackEnergy          69168040515                       # Energy for active background per rank (pJ)
system.mem_ctrls_0.preBackEnergy          26767581000                       # Energy for precharge background per rank (pJ)
system.mem_ctrls_0.totalEnergy           137771020395                       # Total energy per rank (pJ)
system.mem_ctrls_0.averagePower            945.349755                       # Core power per rank (mW)
system.mem_ctrls_0.memoryStateTime::IDLE  43863454530                       # Time in different power states
system.mem_ctrls_0.memoryStateTime::REF    4866420000                       # Time in different power states
system.mem_ctrls_0.memoryStateTime::PRE_PDN            0                       # Time in different power states
system.mem_ctrls_0.memoryStateTime::ACT   97007492470                       # Time in different power states
system.mem_ctrls_0.memoryStateTime::ACT_PDN            0                       # Time in different power states
system.mem_ctrls_1.actEnergy               5920886160                       # Energy for activate commands per rank (pJ)
system.mem_ctrls_1.preEnergy               3230642250                       # Energy for precharge commands per rank (pJ)
system.mem_ctrls_1.readEnergy             17042173200                       # Energy for read commands per rank (pJ)
system.mem_ctrls_1.writeEnergy             6717025440                       # Energy for write commands per rank (pJ)
system.mem_ctrls_1.refreshEnergy           9518717520                       # Energy for refresh commands per rank (pJ)
system.mem_ctrls_1.actBackEnergy          67530603510                       # Energy for active background per rank (pJ)
system.mem_ctrls_1.preBackEnergy          28203929250                       # Energy for precharge background per rank (pJ)
system.mem_ctrls_1.totalEnergy           138163977330                       # Total energy per rank (pJ)
system.mem_ctrls_1.averagePower            948.046126                       # Core power per rank (mW)
system.mem_ctrls_1.memoryStateTime::IDLE  46245630281                       # Time in different power states
system.mem_ctrls_1.memoryStateTime::REF    4866420000                       # Time in different power states
system.mem_ctrls_1.memoryStateTime::PRE_PDN            0                       # Time in different power states
system.mem_ctrls_1.memoryStateTime::ACT   94624502719                       # Time in different power states
system.mem_ctrls_1.memoryStateTime::ACT_PDN            0                       # Time in different power states
system.ruby_clk_domain.clock                      500                       # Clock period in ticks
system.ruby.phys_mem.bytes_read::gpu.ce      50380812                       # Number of bytes read from this memory
system.ruby.phys_mem.bytes_read::gpu.shader_cores0.data      9742016                       # Number of bytes read from this memory
system.ruby.phys_mem.bytes_read::gpu.shader_cores0.inst          576                       # Number of bytes read from this memory
system.ruby.phys_mem.bytes_read::gpu.shader_cores1.data      9815872                       # Number of bytes read from this memory
system.ruby.phys_mem.bytes_read::gpu.shader_cores1.inst          576                       # Number of bytes read from this memory
system.ruby.phys_mem.bytes_read::gpu.shader_cores2.data      9741248                       # Number of bytes read from this memory
system.ruby.phys_mem.bytes_read::gpu.shader_cores2.inst          576                       # Number of bytes read from this memory
system.ruby.phys_mem.bytes_read::gpu.shader_cores3.data      9760320                       # Number of bytes read from this memory
system.ruby.phys_mem.bytes_read::gpu.shader_cores3.inst          576                       # Number of bytes read from this memory
system.ruby.phys_mem.bytes_read::switch_cpus0.inst    531340432                       # Number of bytes read from this memory
system.ruby.phys_mem.bytes_read::switch_cpus0.data     56200086                       # Number of bytes read from this memory
system.ruby.phys_mem.bytes_read::total      676983090                       # Number of bytes read from this memory
system.ruby.phys_mem.bytes_inst_read::gpu.shader_cores0.inst          576                       # Number of instructions bytes read from this memory
system.ruby.phys_mem.bytes_inst_read::gpu.shader_cores1.inst          576                       # Number of instructions bytes read from this memory
system.ruby.phys_mem.bytes_inst_read::gpu.shader_cores2.inst          576                       # Number of instructions bytes read from this memory
system.ruby.phys_mem.bytes_inst_read::gpu.shader_cores3.inst          576                       # Number of instructions bytes read from this memory
system.ruby.phys_mem.bytes_inst_read::switch_cpus0.inst    531340432                       # Number of instructions bytes read from this memory
system.ruby.phys_mem.bytes_inst_read::total    531342736                       # Number of instructions bytes read from this memory
system.ruby.phys_mem.bytes_written::gpu.ce     50380812                       # Number of bytes written to this memory
system.ruby.phys_mem.bytes_written::gpu.shader_cores0.data      4182016                       # Number of bytes written to this memory
system.ruby.phys_mem.bytes_written::gpu.shader_cores1.data      4216832                       # Number of bytes written to this memory
system.ruby.phys_mem.bytes_written::gpu.shader_cores2.data      4185088                       # Number of bytes written to this memory
system.ruby.phys_mem.bytes_written::gpu.shader_cores3.data      4193280                       # Number of bytes written to this memory
system.ruby.phys_mem.bytes_written::switch_cpus0.data     37552369                       # Number of bytes written to this memory
system.ruby.phys_mem.bytes_written::total    104710397                       # Number of bytes written to this memory
system.ruby.phys_mem.num_reads::gpu.ce         393603                       # Number of read requests responded to by this memory
system.ruby.phys_mem.num_reads::gpu.shader_cores0.data       171360                       # Number of read requests responded to by this memory
system.ruby.phys_mem.num_reads::gpu.shader_cores0.inst           36                       # Number of read requests responded to by this memory
system.ruby.phys_mem.num_reads::gpu.shader_cores1.data       172998                       # Number of read requests responded to by this memory
system.ruby.phys_mem.num_reads::gpu.shader_cores1.inst           36                       # Number of read requests responded to by this memory
system.ruby.phys_mem.num_reads::gpu.shader_cores2.data       171717                       # Number of read requests responded to by this memory
system.ruby.phys_mem.num_reads::gpu.shader_cores2.inst           36                       # Number of read requests responded to by this memory
system.ruby.phys_mem.num_reads::gpu.shader_cores3.data       172053                       # Number of read requests responded to by this memory
system.ruby.phys_mem.num_reads::gpu.shader_cores3.inst           36                       # Number of read requests responded to by this memory
system.ruby.phys_mem.num_reads::switch_cpus0.inst     66417554                       # Number of read requests responded to by this memory
system.ruby.phys_mem.num_reads::switch_cpus0.data     13587023                       # Number of read requests responded to by this memory
system.ruby.phys_mem.num_reads::total        81086452                       # Number of read requests responded to by this memory
system.ruby.phys_mem.num_writes::gpu.ce        393603                       # Number of write requests responded to by this memory
system.ruby.phys_mem.num_writes::gpu.shader_cores0.data        95818                       # Number of write requests responded to by this memory
system.ruby.phys_mem.num_writes::gpu.shader_cores1.data        96812                       # Number of write requests responded to by this memory
system.ruby.phys_mem.num_writes::gpu.shader_cores2.data        96103                       # Number of write requests responded to by this memory
system.ruby.phys_mem.num_writes::gpu.shader_cores3.data        96291                       # Number of write requests responded to by this memory
system.ruby.phys_mem.num_writes::switch_cpus0.data      6946312                       # Number of write requests responded to by this memory
system.ruby.phys_mem.num_writes::total        7724939                       # Number of write requests responded to by this memory
system.ruby.phys_mem.bw_read::gpu.ce        345700165                       # Total read bandwidth from this memory (bytes/s)
system.ruby.phys_mem.bw_read::gpu.shader_cores0.data     66847206                       # Total read bandwidth from this memory (bytes/s)
system.ruby.phys_mem.bw_read::gpu.shader_cores0.inst         3952                       # Total read bandwidth from this memory (bytes/s)
system.ruby.phys_mem.bw_read::gpu.shader_cores1.data     67353987                       # Total read bandwidth from this memory (bytes/s)
system.ruby.phys_mem.bw_read::gpu.shader_cores1.inst         3952                       # Total read bandwidth from this memory (bytes/s)
system.ruby.phys_mem.bw_read::gpu.shader_cores2.data     66841937                       # Total read bandwidth from this memory (bytes/s)
system.ruby.phys_mem.bw_read::gpu.shader_cores2.inst         3952                       # Total read bandwidth from this memory (bytes/s)
system.ruby.phys_mem.bw_read::gpu.shader_cores3.data     66972804                       # Total read bandwidth from this memory (bytes/s)
system.ruby.phys_mem.bw_read::gpu.shader_cores3.inst         3952                       # Total read bandwidth from this memory (bytes/s)
system.ruby.phys_mem.bw_read::switch_cpus0.inst   3645921290                       # Total read bandwidth from this memory (bytes/s)
system.ruby.phys_mem.bw_read::switch_cpus0.data    385630526                       # Total read bandwidth from this memory (bytes/s)
system.ruby.phys_mem.bw_read::total        4645283725                       # Total read bandwidth from this memory (bytes/s)
system.ruby.phys_mem.bw_inst_read::gpu.shader_cores0.inst         3952                       # Instruction read bandwidth from this memory (bytes/s)
system.ruby.phys_mem.bw_inst_read::gpu.shader_cores1.inst         3952                       # Instruction read bandwidth from this memory (bytes/s)
system.ruby.phys_mem.bw_inst_read::gpu.shader_cores2.inst         3952                       # Instruction read bandwidth from this memory (bytes/s)
system.ruby.phys_mem.bw_inst_read::gpu.shader_cores3.inst         3952                       # Instruction read bandwidth from this memory (bytes/s)
system.ruby.phys_mem.bw_inst_read::switch_cpus0.inst   3645921290                       # Instruction read bandwidth from this memory (bytes/s)
system.ruby.phys_mem.bw_inst_read::total   3645937100                       # Instruction read bandwidth from this memory (bytes/s)
system.ruby.phys_mem.bw_write::gpu.ce       345700165                       # Write bandwidth from this memory (bytes/s)
system.ruby.phys_mem.bw_write::gpu.shader_cores0.data     28695917                       # Write bandwidth from this memory (bytes/s)
system.ruby.phys_mem.bw_write::gpu.shader_cores1.data     28934816                       # Write bandwidth from this memory (bytes/s)
system.ruby.phys_mem.bw_write::gpu.shader_cores2.data     28716997                       # Write bandwidth from this memory (bytes/s)
system.ruby.phys_mem.bw_write::gpu.shader_cores3.data     28773208                       # Write bandwidth from this memory (bytes/s)
system.ruby.phys_mem.bw_write::switch_cpus0.data    257674691                       # Write bandwidth from this memory (bytes/s)
system.ruby.phys_mem.bw_write::total        718495794                       # Write bandwidth from this memory (bytes/s)
system.ruby.phys_mem.bw_total::gpu.ce       691400330                       # Total bandwidth to/from this memory (bytes/s)
system.ruby.phys_mem.bw_total::gpu.shader_cores0.data     95543124                       # Total bandwidth to/from this memory (bytes/s)
system.ruby.phys_mem.bw_total::gpu.shader_cores0.inst         3952                       # Total bandwidth to/from this memory (bytes/s)
system.ruby.phys_mem.bw_total::gpu.shader_cores1.data     96288803                       # Total bandwidth to/from this memory (bytes/s)
system.ruby.phys_mem.bw_total::gpu.shader_cores1.inst         3952                       # Total bandwidth to/from this memory (bytes/s)
system.ruby.phys_mem.bw_total::gpu.shader_cores2.data     95558933                       # Total bandwidth to/from this memory (bytes/s)
system.ruby.phys_mem.bw_total::gpu.shader_cores2.inst         3952                       # Total bandwidth to/from this memory (bytes/s)
system.ruby.phys_mem.bw_total::gpu.shader_cores3.data     95746012                       # Total bandwidth to/from this memory (bytes/s)
system.ruby.phys_mem.bw_total::gpu.shader_cores3.inst         3952                       # Total bandwidth to/from this memory (bytes/s)
system.ruby.phys_mem.bw_total::switch_cpus0.inst   3645921290                       # Total bandwidth to/from this memory (bytes/s)
system.ruby.phys_mem.bw_total::switch_cpus0.data    643305217                       # Total bandwidth to/from this memory (bytes/s)
system.ruby.phys_mem.bw_total::total       5363779519                       # Total bandwidth to/from this memory (bytes/s)
system.cpu_voltage_domain.voltage                   1                       # Voltage in Volts
system.cpu_clk_domain.clock                       500                       # Clock period in ticks
system.cpu0.apic_clk_domain.clock                8000                       # Clock period in ticks
system.cpu0.workload.num_syscalls                  30                       # Number of system calls
system.cpu0.numCycles                               0                       # number of cpu cycles simulated
system.cpu0.numWorkItemsStarted                     0                       # number of work items this cpu started
system.cpu0.numWorkItemsCompleted                   0                       # number of work items this cpu completed
system.cpu0.committedInsts                          0                       # Number of instructions committed
system.cpu0.committedOps                            0                       # Number of ops (including micro ops) committed
system.cpu0.num_int_alu_accesses                    0                       # Number of integer alu accesses
system.cpu0.num_fp_alu_accesses                     0                       # Number of float alu accesses
system.cpu0.num_func_calls                          0                       # number of times a function call or return occured
system.cpu0.num_conditional_control_insts            0                       # number of instructions that are conditional controls
system.cpu0.num_int_insts                           0                       # number of integer instructions
system.cpu0.num_fp_insts                            0                       # number of float instructions
system.cpu0.num_int_register_reads                  0                       # number of times the integer registers were read
system.cpu0.num_int_register_writes                 0                       # number of times the integer registers were written
system.cpu0.num_fp_register_reads                   0                       # number of times the floating registers were read
system.cpu0.num_fp_register_writes                  0                       # number of times the floating registers were written
system.cpu0.num_mem_refs                            0                       # number of memory refs
system.cpu0.num_load_insts                          0                       # Number of load instructions
system.cpu0.num_store_insts                         0                       # Number of store instructions
system.cpu0.num_idle_cycles                         0                       # Number of idle cycles
system.cpu0.num_busy_cycles                         0                       # Number of busy cycles
system.cpu0.not_idle_fraction                       1                       # Percentage of non-idle cycles
system.cpu0.idle_fraction                           0                       # Percentage of idle cycles
system.cpu0.op_class::No_OpClass                    0                       # Class of executed instruction
system.cpu0.op_class::IntAlu                        0                       # Class of executed instruction
system.cpu0.op_class::IntMult                       0                       # Class of executed instruction
system.cpu0.op_class::IntDiv                        0                       # Class of executed instruction
system.cpu0.op_class::FloatAdd                      0                       # Class of executed instruction
system.cpu0.op_class::FloatCmp                      0                       # Class of executed instruction
system.cpu0.op_class::FloatCvt                      0                       # Class of executed instruction
system.cpu0.op_class::FloatMult                     0                       # Class of executed instruction
system.cpu0.op_class::FloatDiv                      0                       # Class of executed instruction
system.cpu0.op_class::FloatSqrt                     0                       # Class of executed instruction
system.cpu0.op_class::SimdAdd                       0                       # Class of executed instruction
system.cpu0.op_class::SimdAddAcc                    0                       # Class of executed instruction
system.cpu0.op_class::SimdAlu                       0                       # Class of executed instruction
system.cpu0.op_class::SimdCmp                       0                       # Class of executed instruction
system.cpu0.op_class::SimdCvt                       0                       # Class of executed instruction
system.cpu0.op_class::SimdMisc                      0                       # Class of executed instruction
system.cpu0.op_class::SimdMult                      0                       # Class of executed instruction
system.cpu0.op_class::SimdMultAcc                   0                       # Class of executed instruction
system.cpu0.op_class::SimdShift                     0                       # Class of executed instruction
system.cpu0.op_class::SimdShiftAcc                  0                       # Class of executed instruction
system.cpu0.op_class::SimdSqrt                      0                       # Class of executed instruction
system.cpu0.op_class::SimdFloatAdd                  0                       # Class of executed instruction
system.cpu0.op_class::SimdFloatAlu                  0                       # Class of executed instruction
system.cpu0.op_class::SimdFloatCmp                  0                       # Class of executed instruction
system.cpu0.op_class::SimdFloatCvt                  0                       # Class of executed instruction
system.cpu0.op_class::SimdFloatDiv                  0                       # Class of executed instruction
system.cpu0.op_class::SimdFloatMisc                 0                       # Class of executed instruction
system.cpu0.op_class::SimdFloatMult                 0                       # Class of executed instruction
system.cpu0.op_class::SimdFloatMultAcc              0                       # Class of executed instruction
system.cpu0.op_class::SimdFloatSqrt                 0                       # Class of executed instruction
system.cpu0.op_class::MemRead                       0                       # Class of executed instruction
system.cpu0.op_class::MemWrite                      0                       # Class of executed instruction
system.cpu0.op_class::IprAccess                     0                       # Class of executed instruction
system.cpu0.op_class::InstPrefetch                  0                       # Class of executed instruction
system.cpu0.op_class::total                         0                       # Class of executed instruction
system.cpu1.apic_clk_domain.clock                8000                       # Clock period in ticks
system.cpu1.numCycles                               0                       # number of cpu cycles simulated
system.cpu1.numWorkItemsStarted                     0                       # number of work items this cpu started
system.cpu1.numWorkItemsCompleted                   0                       # number of work items this cpu completed
system.cpu1.committedInsts                          0                       # Number of instructions committed
system.cpu1.committedOps                            0                       # Number of ops (including micro ops) committed
system.cpu1.num_int_alu_accesses                    0                       # Number of integer alu accesses
system.cpu1.num_fp_alu_accesses                     0                       # Number of float alu accesses
system.cpu1.num_func_calls                          0                       # number of times a function call or return occured
system.cpu1.num_conditional_control_insts            0                       # number of instructions that are conditional controls
system.cpu1.num_int_insts                           0                       # number of integer instructions
system.cpu1.num_fp_insts                            0                       # number of float instructions
system.cpu1.num_int_register_reads                  0                       # number of times the integer registers were read
system.cpu1.num_int_register_writes                 0                       # number of times the integer registers were written
system.cpu1.num_fp_register_reads                   0                       # number of times the floating registers were read
system.cpu1.num_fp_register_writes                  0                       # number of times the floating registers were written
system.cpu1.num_mem_refs                            0                       # number of memory refs
system.cpu1.num_load_insts                          0                       # Number of load instructions
system.cpu1.num_store_insts                         0                       # Number of store instructions
system.cpu1.num_idle_cycles                         0                       # Number of idle cycles
system.cpu1.num_busy_cycles                         0                       # Number of busy cycles
system.cpu1.not_idle_fraction                       0                       # Percentage of non-idle cycles
system.cpu1.idle_fraction                           1                       # Percentage of idle cycles
system.cpu1.op_class::No_OpClass                    0                       # Class of executed instruction
system.cpu1.op_class::IntAlu                        0                       # Class of executed instruction
system.cpu1.op_class::IntMult                       0                       # Class of executed instruction
system.cpu1.op_class::IntDiv                        0                       # Class of executed instruction
system.cpu1.op_class::FloatAdd                      0                       # Class of executed instruction
system.cpu1.op_class::FloatCmp                      0                       # Class of executed instruction
system.cpu1.op_class::FloatCvt                      0                       # Class of executed instruction
system.cpu1.op_class::FloatMult                     0                       # Class of executed instruction
system.cpu1.op_class::FloatDiv                      0                       # Class of executed instruction
system.cpu1.op_class::FloatSqrt                     0                       # Class of executed instruction
system.cpu1.op_class::SimdAdd                       0                       # Class of executed instruction
system.cpu1.op_class::SimdAddAcc                    0                       # Class of executed instruction
system.cpu1.op_class::SimdAlu                       0                       # Class of executed instruction
system.cpu1.op_class::SimdCmp                       0                       # Class of executed instruction
system.cpu1.op_class::SimdCvt                       0                       # Class of executed instruction
system.cpu1.op_class::SimdMisc                      0                       # Class of executed instruction
system.cpu1.op_class::SimdMult                      0                       # Class of executed instruction
system.cpu1.op_class::SimdMultAcc                   0                       # Class of executed instruction
system.cpu1.op_class::SimdShift                     0                       # Class of executed instruction
system.cpu1.op_class::SimdShiftAcc                  0                       # Class of executed instruction
system.cpu1.op_class::SimdSqrt                      0                       # Class of executed instruction
system.cpu1.op_class::SimdFloatAdd                  0                       # Class of executed instruction
system.cpu1.op_class::SimdFloatAlu                  0                       # Class of executed instruction
system.cpu1.op_class::SimdFloatCmp                  0                       # Class of executed instruction
system.cpu1.op_class::SimdFloatCvt                  0                       # Class of executed instruction
system.cpu1.op_class::SimdFloatDiv                  0                       # Class of executed instruction
system.cpu1.op_class::SimdFloatMisc                 0                       # Class of executed instruction
system.cpu1.op_class::SimdFloatMult                 0                       # Class of executed instruction
system.cpu1.op_class::SimdFloatMultAcc              0                       # Class of executed instruction
system.cpu1.op_class::SimdFloatSqrt                 0                       # Class of executed instruction
system.cpu1.op_class::MemRead                       0                       # Class of executed instruction
system.cpu1.op_class::MemWrite                      0                       # Class of executed instruction
system.cpu1.op_class::IprAccess                     0                       # Class of executed instruction
system.cpu1.op_class::InstPrefetch                  0                       # Class of executed instruction
system.cpu1.op_class::total                         0                       # Class of executed instruction
system.gpu.clk_domain.voltage_domain.voltage            1                       # Voltage in Volts
system.gpu.clk_domain.clock                      1429                       # Clock period in ticks
system.gpu.dram_wrapper.clk_domain.clock          541                       # Clock period in ticks
system.gpu.icnt_wrapper.clk_domain.clock         2858                       # Clock period in ticks
system.ruby.delayHist::bucket_size                128                       # delay histogram for all message
system.ruby.delayHist::max_bucket                1279                       # delay histogram for all message
system.ruby.delayHist::samples               15348922                       # delay histogram for all message
system.ruby.delayHist::mean                  6.673725                       # delay histogram for all message
system.ruby.delayHist::stdev                23.611402                       # delay histogram for all message
system.ruby.delayHist                    |    15216949     99.14%     99.14% |      107543      0.70%     99.84% |       21117      0.14%     99.98% |        2827      0.02%    100.00% |         397      0.00%    100.00% |          67      0.00%    100.00% |          14      0.00%    100.00% |           8      0.00%    100.00% |           0      0.00%    100.00% |           0      0.00%    100.00% # delay histogram for all message
system.ruby.delayHist::total                 15348922                       # delay histogram for all message
system.ruby.outstanding_req_hist::bucket_size           16                      
system.ruby.outstanding_req_hist::max_bucket          159                      
system.ruby.outstanding_req_hist::samples     88811391                      
system.ruby.outstanding_req_hist::mean       1.947434                      
system.ruby.outstanding_req_hist::gmean      1.076674                      
system.ruby.outstanding_req_hist::stdev      7.524799                      
system.ruby.outstanding_req_hist         |    87355179     98.36%     98.36% |      250892      0.28%     98.64% |      138264      0.16%     98.80% |       92009      0.10%     98.90% |      853742      0.96%     99.86% |       32520      0.04%     99.90% |       88785      0.10%    100.00% |           0      0.00%    100.00% |           0      0.00%    100.00% |           0      0.00%    100.00%
system.ruby.outstanding_req_hist::total      88811391                      
system.ruby.latency_hist::bucket_size            4096                      
system.ruby.latency_hist::max_bucket            40959                      
system.ruby.latency_hist::samples            88811391                      
system.ruby.latency_hist::mean              74.918334                      
system.ruby.latency_hist::gmean              1.190264                      
system.ruby.latency_hist::stdev            812.665213                      
system.ruby.latency_hist                 |    88209138     99.32%     99.32% |      424733      0.48%     99.80% |       57357      0.06%     99.86% |       51581      0.06%     99.92% |       43283      0.05%     99.97% |       22159      0.02%    100.00% |        3036      0.00%    100.00% |         104      0.00%    100.00% |           0      0.00%    100.00% |           0      0.00%    100.00%
system.ruby.latency_hist::total              88811391                      
system.ruby.hit_latency_hist::bucket_size            1                      
system.ruby.hit_latency_hist::max_bucket            9                      
system.ruby.hit_latency_hist::samples        86637137                      
system.ruby.hit_latency_hist::mean           1.000002                      
system.ruby.hit_latency_hist::gmean          1.000001                      
system.ruby.hit_latency_hist::stdev          0.001966                      
system.ruby.hit_latency_hist             |           0      0.00%      0.00% |    86637049    100.00%    100.00% |          38      0.00%    100.00% |          39      0.00%    100.00% |           5      0.00%    100.00% |           6      0.00%    100.00% |           0      0.00%    100.00% |           0      0.00%    100.00% |           0      0.00%    100.00% |           0      0.00%    100.00%
system.ruby.hit_latency_hist::total          86637137                      
system.ruby.miss_latency_hist::bucket_size         4096                      
system.ruby.miss_latency_hist::max_bucket        40959                      
system.ruby.miss_latency_hist::samples        2174254                      
system.ruby.miss_latency_hist::mean       3020.329799                      
system.ruby.miss_latency_hist::gmean      1229.608733                      
system.ruby.miss_latency_hist::stdev      4252.422737                      
system.ruby.miss_latency_hist            |     1572001     72.30%     72.30% |      424733     19.53%     91.84% |       57357      2.64%     94.47% |       51581      2.37%     96.85% |       43283      1.99%     98.84% |       22159      1.02%     99.86% |        3036      0.14%    100.00% |         104      0.00%    100.00% |           0      0.00%    100.00% |           0      0.00%    100.00%
system.ruby.miss_latency_hist::total          2174254                      
system.gpu.shader_mmu.numPagefaults                 0                       # Number of Pagefaults
system.gpu.shader_mmu.numPagewalks             173605                       # Number of Pagewalks
system.gpu.shader_mmu.totalRequests            173605                       # Total number of requests
system.gpu.shader_mmu.l2hits                        0                       # Hits in the shared L2
system.gpu.shader_mmu.prefetchHits                  0                       # Number of prefetch hits
system.gpu.shader_mmu.numPrefetches                 0                       # Number of prefetchs
system.gpu.shader_mmu.prefetchFaults                0                       # Number of faults caused by prefetches
system.gpu.shader_mmu.pagefaultLatency::samples            0                       # Latency to complete the pagefault
system.gpu.shader_mmu.pagefaultLatency::mean          nan                       # Latency to complete the pagefault
system.gpu.shader_mmu.pagefaultLatency::gmean          nan                       # Latency to complete the pagefault
system.gpu.shader_mmu.pagefaultLatency::stdev          nan                       # Latency to complete the pagefault
system.gpu.shader_mmu.pagefaultLatency::0            0                       # Latency to complete the pagefault
system.gpu.shader_mmu.pagefaultLatency::1            0                       # Latency to complete the pagefault
system.gpu.shader_mmu.pagefaultLatency::2            0                       # Latency to complete the pagefault
system.gpu.shader_mmu.pagefaultLatency::3            0                       # Latency to complete the pagefault
system.gpu.shader_mmu.pagefaultLatency::4            0                       # Latency to complete the pagefault
system.gpu.shader_mmu.pagefaultLatency::5            0                       # Latency to complete the pagefault
system.gpu.shader_mmu.pagefaultLatency::6            0                       # Latency to complete the pagefault
system.gpu.shader_mmu.pagefaultLatency::7            0                       # Latency to complete the pagefault
system.gpu.shader_mmu.pagefaultLatency::8            0                       # Latency to complete the pagefault
system.gpu.shader_mmu.pagefaultLatency::9            0                       # Latency to complete the pagefault
system.gpu.shader_mmu.pagefaultLatency::10            0                       # Latency to complete the pagefault
system.gpu.shader_mmu.pagefaultLatency::11            0                       # Latency to complete the pagefault
system.gpu.shader_mmu.pagefaultLatency::12            0                       # Latency to complete the pagefault
system.gpu.shader_mmu.pagefaultLatency::13            0                       # Latency to complete the pagefault
system.gpu.shader_mmu.pagefaultLatency::14            0                       # Latency to complete the pagefault
system.gpu.shader_mmu.pagefaultLatency::15            0                       # Latency to complete the pagefault
system.gpu.shader_mmu.pagefaultLatency::16            0                       # Latency to complete the pagefault
system.gpu.shader_mmu.pagefaultLatency::17            0                       # Latency to complete the pagefault
system.gpu.shader_mmu.pagefaultLatency::18            0                       # Latency to complete the pagefault
system.gpu.shader_mmu.pagefaultLatency::19            0                       # Latency to complete the pagefault
system.gpu.shader_mmu.pagefaultLatency::20            0                       # Latency to complete the pagefault
system.gpu.shader_mmu.pagefaultLatency::21            0                       # Latency to complete the pagefault
system.gpu.shader_mmu.pagefaultLatency::22            0                       # Latency to complete the pagefault
system.gpu.shader_mmu.pagefaultLatency::23            0                       # Latency to complete the pagefault
system.gpu.shader_mmu.pagefaultLatency::24            0                       # Latency to complete the pagefault
system.gpu.shader_mmu.pagefaultLatency::25            0                       # Latency to complete the pagefault
system.gpu.shader_mmu.pagefaultLatency::26            0                       # Latency to complete the pagefault
system.gpu.shader_mmu.pagefaultLatency::27            0                       # Latency to complete the pagefault
system.gpu.shader_mmu.pagefaultLatency::28            0                       # Latency to complete the pagefault
system.gpu.shader_mmu.pagefaultLatency::29            0                       # Latency to complete the pagefault
system.gpu.shader_mmu.pagefaultLatency::30            0                       # Latency to complete the pagefault
system.gpu.shader_mmu.pagefaultLatency::31            0                       # Latency to complete the pagefault
system.gpu.shader_mmu.pagefaultLatency::total            0                       # Latency to complete the pagefault
system.gpu.shader_mmu.concurrentWalks::samples       173605                       # Number of outstanding walks
system.gpu.shader_mmu.concurrentWalks::mean            0                       # Number of outstanding walks
system.gpu.shader_mmu.concurrentWalks::gmean            0                       # Number of outstanding walks
system.gpu.shader_mmu.concurrentWalks::stdev            0                       # Number of outstanding walks
system.gpu.shader_mmu.concurrentWalks::0       173605    100.00%    100.00% # Number of outstanding walks
system.gpu.shader_mmu.concurrentWalks::1            0      0.00%    100.00% # Number of outstanding walks
system.gpu.shader_mmu.concurrentWalks::2            0      0.00%    100.00% # Number of outstanding walks
system.gpu.shader_mmu.concurrentWalks::3            0      0.00%    100.00% # Number of outstanding walks
system.gpu.shader_mmu.concurrentWalks::4            0      0.00%    100.00% # Number of outstanding walks
system.gpu.shader_mmu.concurrentWalks::5            0      0.00%    100.00% # Number of outstanding walks
system.gpu.shader_mmu.concurrentWalks::6            0      0.00%    100.00% # Number of outstanding walks
system.gpu.shader_mmu.concurrentWalks::7            0      0.00%    100.00% # Number of outstanding walks
system.gpu.shader_mmu.concurrentWalks::8            0      0.00%    100.00% # Number of outstanding walks
system.gpu.shader_mmu.concurrentWalks::9            0      0.00%    100.00% # Number of outstanding walks
system.gpu.shader_mmu.concurrentWalks::10            0      0.00%    100.00% # Number of outstanding walks
system.gpu.shader_mmu.concurrentWalks::11            0      0.00%    100.00% # Number of outstanding walks
system.gpu.shader_mmu.concurrentWalks::12            0      0.00%    100.00% # Number of outstanding walks
system.gpu.shader_mmu.concurrentWalks::13            0      0.00%    100.00% # Number of outstanding walks
system.gpu.shader_mmu.concurrentWalks::14            0      0.00%    100.00% # Number of outstanding walks
system.gpu.shader_mmu.concurrentWalks::15            0      0.00%    100.00% # Number of outstanding walks
system.gpu.shader_mmu.concurrentWalks::total       173605                       # Number of outstanding walks
system.gpu.shader_mmu.pagewalkLatency::samples       173605                       # Latency to complete the pagewalk
system.gpu.shader_mmu.pagewalkLatency::mean            0                       # Latency to complete the pagewalk
system.gpu.shader_mmu.pagewalkLatency::gmean            0                       # Latency to complete the pagewalk
system.gpu.shader_mmu.pagewalkLatency::stdev            0                       # Latency to complete the pagewalk
system.gpu.shader_mmu.pagewalkLatency::0       173605    100.00%    100.00% # Latency to complete the pagewalk
system.gpu.shader_mmu.pagewalkLatency::1            0      0.00%    100.00% # Latency to complete the pagewalk
system.gpu.shader_mmu.pagewalkLatency::2            0      0.00%    100.00% # Latency to complete the pagewalk
system.gpu.shader_mmu.pagewalkLatency::3            0      0.00%    100.00% # Latency to complete the pagewalk
system.gpu.shader_mmu.pagewalkLatency::4            0      0.00%    100.00% # Latency to complete the pagewalk
system.gpu.shader_mmu.pagewalkLatency::5            0      0.00%    100.00% # Latency to complete the pagewalk
system.gpu.shader_mmu.pagewalkLatency::6            0      0.00%    100.00% # Latency to complete the pagewalk
system.gpu.shader_mmu.pagewalkLatency::7            0      0.00%    100.00% # Latency to complete the pagewalk
system.gpu.shader_mmu.pagewalkLatency::8            0      0.00%    100.00% # Latency to complete the pagewalk
system.gpu.shader_mmu.pagewalkLatency::9            0      0.00%    100.00% # Latency to complete the pagewalk
system.gpu.shader_mmu.pagewalkLatency::10            0      0.00%    100.00% # Latency to complete the pagewalk
system.gpu.shader_mmu.pagewalkLatency::11            0      0.00%    100.00% # Latency to complete the pagewalk
system.gpu.shader_mmu.pagewalkLatency::12            0      0.00%    100.00% # Latency to complete the pagewalk
system.gpu.shader_mmu.pagewalkLatency::13            0      0.00%    100.00% # Latency to complete the pagewalk
system.gpu.shader_mmu.pagewalkLatency::14            0      0.00%    100.00% # Latency to complete the pagewalk
system.gpu.shader_mmu.pagewalkLatency::15            0      0.00%    100.00% # Latency to complete the pagewalk
system.gpu.shader_mmu.pagewalkLatency::16            0      0.00%    100.00% # Latency to complete the pagewalk
system.gpu.shader_mmu.pagewalkLatency::17            0      0.00%    100.00% # Latency to complete the pagewalk
system.gpu.shader_mmu.pagewalkLatency::18            0      0.00%    100.00% # Latency to complete the pagewalk
system.gpu.shader_mmu.pagewalkLatency::19            0      0.00%    100.00% # Latency to complete the pagewalk
system.gpu.shader_mmu.pagewalkLatency::20            0      0.00%    100.00% # Latency to complete the pagewalk
system.gpu.shader_mmu.pagewalkLatency::21            0      0.00%    100.00% # Latency to complete the pagewalk
system.gpu.shader_mmu.pagewalkLatency::22            0      0.00%    100.00% # Latency to complete the pagewalk
system.gpu.shader_mmu.pagewalkLatency::23            0      0.00%    100.00% # Latency to complete the pagewalk
system.gpu.shader_mmu.pagewalkLatency::24            0      0.00%    100.00% # Latency to complete the pagewalk
system.gpu.shader_mmu.pagewalkLatency::25            0      0.00%    100.00% # Latency to complete the pagewalk
system.gpu.shader_mmu.pagewalkLatency::26            0      0.00%    100.00% # Latency to complete the pagewalk
system.gpu.shader_mmu.pagewalkLatency::27            0      0.00%    100.00% # Latency to complete the pagewalk
system.gpu.shader_mmu.pagewalkLatency::28            0      0.00%    100.00% # Latency to complete the pagewalk
system.gpu.shader_mmu.pagewalkLatency::29            0      0.00%    100.00% # Latency to complete the pagewalk
system.gpu.shader_mmu.pagewalkLatency::30            0      0.00%    100.00% # Latency to complete the pagewalk
system.gpu.shader_mmu.pagewalkLatency::31            0      0.00%    100.00% # Latency to complete the pagewalk
system.gpu.shader_mmu.pagewalkLatency::total       173605                       # Latency to complete the pagewalk
system.gpu.kernels_started                        255                       # Number of kernels started
system.gpu.kernels_completed                      255                       # Number of kernels completed
system.gpu.ce.device_dtb.hits                       0                       # Number of hits in this TLB
system.gpu.ce.device_dtb.misses                     0                       # Number of misses in this TLB
system.gpu.ce.device_dtb.hitRate                  nan                       # Hit rate for this TLB
system.gpu.ce.host_dtb.hits                    219998                       # Number of hits in this TLB
system.gpu.ce.host_dtb.misses                  173605                       # Number of misses in this TLB
system.gpu.ce.host_dtb.hitRate               0.558934                       # Hit rate for this TLB
system.gpu.ce.numOperations                         3                       # Number of copy/memset operations
system.gpu.ce.opBytesRead                    50380812                       # Number of copy bytes read
system.gpu.ce.opBytesWritten                 50380812                       # Number of copy/memset bytes written
system.gpu.ce.opTimeTicks                 15563594530                       # Total time spent in copy/memset operations
system.gpu.shader_cores0.itb.hits                   0                       # Number of hits in this TLB
system.gpu.shader_cores0.itb.misses                 0                       # Number of misses in this TLB
system.gpu.shader_cores0.itb.hitRate              nan                       # Hit rate for this TLB
system.gpu.shader_cores0.local_loads                0                       # Number of loads from local space
system.gpu.shader_cores0.local_stores               0                       # Number of stores to local space
system.gpu.shader_cores0.shared_loads         5227520                       # Number of loads from shared space
system.gpu.shader_cores0.shared_stores        2225780                       # Number of stores to shared space
system.gpu.shader_cores0.param_kernel_loads      1339360                       # Number of loads from kernel parameter space
system.gpu.shader_cores0.param_local_loads            0                       # Number of loads from local parameter space
system.gpu.shader_cores0.param_local_stores            0                       # Number of stores to local parameter space
system.gpu.shader_cores0.const_loads                0                       # Number of loads from constant space
system.gpu.shader_cores0.tex_loads                  0                       # Number of loads from texture space
system.gpu.shader_cores0.global_loads         1180276                       # Number of loads from global space
system.gpu.shader_cores0.global_stores        1045504                       # Number of stores to global space
system.gpu.shader_cores0.surf_loads                 0                       # Number of loads from surface space
system.gpu.shader_cores0.generic_loads              0                       # Number of loads from generic spaces (global, shared, local)
system.gpu.shader_cores0.generic_stores             0                       # Number of stores to generic spaces (global, shared, local)
system.gpu.shader_cores0.inst_cache_requests           36                       # Number of instruction cache requests sent
system.gpu.shader_cores0.inst_cache_retries            1                       # Number of instruction cache retries
system.gpu.shader_cores0.inst_counts::0             0                       # Inst counts: 1: ALU, 2: MAD, 3: CTRL, 4: SFU, 5: MEM, 6: TEX, 7: NOP
system.gpu.shader_cores0.inst_counts::1      35460988                       # Inst counts: 1: ALU, 2: MAD, 3: CTRL, 4: SFU, 5: MEM, 6: TEX, 7: NOP
system.gpu.shader_cores0.inst_counts::2             0                       # Inst counts: 1: ALU, 2: MAD, 3: CTRL, 4: SFU, 5: MEM, 6: TEX, 7: NOP
system.gpu.shader_cores0.inst_counts::3       6268940                       # Inst counts: 1: ALU, 2: MAD, 3: CTRL, 4: SFU, 5: MEM, 6: TEX, 7: NOP
system.gpu.shader_cores0.inst_counts::4             0                       # Inst counts: 1: ALU, 2: MAD, 3: CTRL, 4: SFU, 5: MEM, 6: TEX, 7: NOP
system.gpu.shader_cores0.inst_counts::5      11018440                       # Inst counts: 1: ALU, 2: MAD, 3: CTRL, 4: SFU, 5: MEM, 6: TEX, 7: NOP
system.gpu.shader_cores0.inst_counts::6             0                       # Inst counts: 1: ALU, 2: MAD, 3: CTRL, 4: SFU, 5: MEM, 6: TEX, 7: NOP
system.gpu.shader_cores0.inst_counts::7             0                       # Inst counts: 1: ALU, 2: MAD, 3: CTRL, 4: SFU, 5: MEM, 6: TEX, 7: NOP
system.gpu.shader_cores0.activeCycles        12730880                       # Number of cycles this shader was executing a CTA
[...]
system.ruby.L1Cache_Controller.I.Store   |          35    100.00%    100.00% |           0      0.00%    100.00% |           0      0.00%    100.00% |           0      0.00%    100.00% |           0      0.00%    100.00% |           0      0.00%    100.00% |           0      0.00%    100.00% |           0      0.00%    100.00%
system.ruby.L1Cache_Controller.I.Store::total           35                      
system.ruby.L1Cache_Controller.I.L1_Replacement |         372      0.06%      0.06% |           0      0.00%      0.06% |      145485     24.79%     24.86% |      146676     25.00%     49.86% |      147026     25.06%     74.91% |      147197     25.09%    100.00% |           0      0.00%    100.00% |           9      0.00%    100.00%
system.ruby.L1Cache_Controller.I.L1_Replacement::total       586765                      
system.ruby.L1Cache_Controller.S.Load    |           0      0.00%      0.00% |           0      0.00%      0.00% |           0      0.00%      0.00% |           1     25.00%     25.00% |           2     50.00%     75.00% |           1     25.00%    100.00% |           0      0.00%    100.00% |           0      0.00%    100.00%
system.ruby.L1Cache_Controller.S.Load::total            4                      
system.ruby.L1Cache_Controller.S.Ifetch  |    66416352    100.00%    100.00% |           0      0.00%    100.00% |           0      0.00%    100.00% |           0      0.00%    100.00% |           0      0.00%    100.00% |           0      0.00%    100.00% |           0      0.00%    100.00% |           0      0.00%    100.00%
system.ruby.L1Cache_Controller.S.Ifetch::total     66416352                      
system.ruby.L1Cache_Controller.S.Inv     |         986     14.33%     14.33% |           0      0.00%     14.33% |        1428     20.76%     35.09% |        1498     21.78%     56.87% |        1498     21.78%     78.65% |        1469     21.35%    100.00% |           0      0.00%    100.00% |           0      0.00%    100.00%
system.ruby.L1Cache_Controller.S.Inv::total         6879                      
system.ruby.L1Cache_Controller.S.L1_Replacement |         154      9.94%      9.94% |           0      0.00%      9.94% |         379     24.45%     34.39% |         332     21.42%     55.81% |         337     21.74%     77.55% |         348     22.45%    100.00% |           0      0.00%    100.00% |           0      0.00%    100.00%
system.ruby.L1Cache_Controller.S.L1_Replacement::total         1550                      
system.ruby.L1Cache_Controller.E.Load    |    12652595     99.99%     99.99% |           0      0.00%     99.99% |         283      0.00%     99.99% |         282      0.00%    100.00% |         259      0.00%    100.00% |         250      0.00%    100.00% |           0      0.00%    100.00% |           0      0.00%    100.00%
system.ruby.L1Cache_Controller.E.Load::total     12653669                      
system.ruby.L1Cache_Controller.E.Store   |         161    100.00%    100.00% |           0      0.00%    100.00% |           0      0.00%    100.00% |           0      0.00%    100.00% |           0      0.00%    100.00% |           0      0.00%    100.00% |           0      0.00%    100.00% |           0      0.00%    100.00%
system.ruby.L1Cache_Controller.E.Store::total          161                      
system.ruby.L1Cache_Controller.E.Inv     |        3622      0.90%      0.90% |           0      0.00%      0.90% |       99139     24.52%     25.41% |      100290     24.80%     50.21% |      100742     24.91%     75.12% |      100598     24.88%    100.00% |           0      0.00%    100.00% |           0      0.00%    100.00%
system.ruby.L1Cache_Controller.E.Inv::total       404391                      
system.ruby.L1Cache_Controller.E.L1_Replacement |       41255      5.78%      5.78% |           0      0.00%      5.78% |       70148      9.83%     15.60% |       70610      9.89%     25.49% |       68897      9.65%     35.15% |       69414      9.72%     44.87% |           0      0.00%     44.87% |      393603     55.13%    100.00%
system.ruby.L1Cache_Controller.E.L1_Replacement::total       713927                      
system.ruby.L1Cache_Controller.E.Fwd_GETX |           0      0.00%      0.00% |           0      0.00%      0.00% |           2     50.00%     50.00% |           1     25.00%     75.00% |           0      0.00%     75.00% |           1     25.00%    100.00% |           0      0.00%    100.00% |           0      0.00%    100.00%
system.ruby.L1Cache_Controller.E.Fwd_GETX::total            4                      
system.ruby.L1Cache_Controller.E.Fwd_GETS |           0      0.00%      0.00% |           0      0.00%      0.00% |         438     26.29%     26.29% |         411     24.67%     50.96% |         406     24.37%     75.33% |         411     24.67%    100.00% |           0      0.00%    100.00% |           0      0.00%    100.00%
system.ruby.L1Cache_Controller.E.Fwd_GETS::total         1666                      
system.ruby.L1Cache_Controller.M.Load    |      813166    100.00%    100.00% |           0      0.00%    100.00% |           9      0.00%    100.00% |           3      0.00%    100.00% |           8      0.00%    100.00% |           6      0.00%    100.00% |           0      0.00%    100.00% |           0      0.00%    100.00%
system.ruby.L1Cache_Controller.M.Load::total       813192                      
system.ruby.L1Cache_Controller.M.Store   |     6753759    100.00%    100.00% |           0      0.00%    100.00% |           0      0.00%    100.00% |           0      0.00%    100.00% |           0      0.00%    100.00% |           0      0.00%    100.00% |           0      0.00%    100.00% |           0      0.00%    100.00%
system.ruby.L1Cache_Controller.M.Store::total      6753759                      
system.ruby.L1Cache_Controller.M.Inv     |         344      0.19%      0.19% |           0      0.00%      0.19% |       45524     24.94%     25.13% |       45498     24.93%     50.06% |       45392     24.87%     74.93% |       45746     25.06%     99.99% |           0      0.00%     99.99% |          14      0.01%    100.00%
system.ruby.L1Cache_Controller.M.Inv::total       182518                      
system.ruby.L1Cache_Controller.M.L1_Replacement |      268215     31.02%     31.02% |           0      0.00%     31.02% |       50274      5.81%     36.84% |       51302      5.93%     42.77% |       50691      5.86%     48.63% |       50528      5.84%     54.48% |           0      0.00%     54.48% |      393586     45.52%    100.00%
system.ruby.L1Cache_Controller.M.L1_Replacement::total       864596                      
system.ruby.L1Cache_Controller.M.Fwd_GETX |           0      0.00%      0.00% |           0      0.00%      0.00% |           0      0.00%      0.00% |           0      0.00%      0.00% |           0      0.00%      0.00% |           0      0.00%      0.00% |           0      0.00%      0.00% |           3    100.00%    100.00%
system.ruby.L1Cache_Controller.M.Fwd_GETX::total            3                      
system.ruby.L1Cache_Controller.M.Fwd_GETS |           0      0.00%      0.00% |           0      0.00%      0.00% |          20     28.99%     28.99% |          12     17.39%     46.38% |          20     28.99%     75.36% |          17     24.64%    100.00% |           0      0.00%    100.00% |           0      0.00%    100.00%
system.ruby.L1Cache_Controller.M.Fwd_GETS::total           69                      
system.ruby.L1Cache_Controller.IS.Inv    |           0      0.00%      0.00% |           0      0.00%      0.00% |          28     26.42%     26.42% |          29     27.36%     53.77% |          30     28.30%     82.08% |          19     17.92%    100.00% |           0      0.00%    100.00% |           0      0.00%    100.00%
system.ruby.L1Cache_Controller.IS.Inv::total          106                      
system.ruby.L1Cache_Controller.IS.L1_Replacement |           0      0.00%      0.00% |           0      0.00%      0.00% |      595316      8.25%      8.25% |      585948      8.12%     16.37% |      589910      8.18%     24.55% |      582238      8.07%     32.62% |           0      0.00%     32.62% |     4860665     67.38%    100.00%
system.ruby.L1Cache_Controller.IS.L1_Replacement::total      7214077                      
system.ruby.L1Cache_Controller.IS.Data_Exclusive |       45242      4.04%      4.04% |           0      0.00%      4.04% |      169727     15.15%     19.19% |      171312     15.29%     34.48% |      170045     15.18%     49.66% |      170424     15.21%     64.87% |           0      0.00%     64.87% |      393603     35.13%    100.00%
system.ruby.L1Cache_Controller.IS.Data_Exclusive::total      1120353                      
system.ruby.L1Cache_Controller.IS.DataS_fromL1 |           0      0.00%      0.00% |           0      0.00%      0.00% |         433     24.83%     24.83% |         439     25.17%     50.00% |         443     25.40%     75.40% |         429     24.60%    100.00% |           0      0.00%    100.00% |           0      0.00%    100.00%
system.ruby.L1Cache_Controller.IS.DataS_fromL1::total         1744                      
system.ruby.L1Cache_Controller.IS.Data_all_Acks |        1202     23.98%     23.98% |           0      0.00%     23.98% |         916     18.28%     42.26% |         968     19.31%     61.57% |         966     19.27%     80.85% |         960     19.15%    100.00% |           0      0.00%    100.00% |           0      0.00%    100.00%
system.ruby.L1Cache_Controller.IS.Data_all_Acks::total         5012                      
system.ruby.L1Cache_Controller.IM.L1_Replacement |           0      0.00%      0.00% |           0      0.00%      0.00% |      759409      8.66%      8.66% |      751978      8.58%     17.24% |      759587      8.67%     25.91% |      748591      8.54%     34.45% |           0      0.00%     34.45% |     5745302     65.55%    100.00%
system.ruby.L1Cache_Controller.IM.L1_Replacement::total      8764867                      
system.ruby.L1Cache_Controller.IM.Data   |           0      0.00%      0.00% |           0      0.00%      0.00% |           0      0.00%      0.00% |           0      0.00%      0.00% |           8     88.89%     88.89% |           1     11.11%    100.00% |           0      0.00%    100.00% |           0      0.00%    100.00%
system.ruby.L1Cache_Controller.IM.Data::total            9                      
system.ruby.L1Cache_Controller.IM.Data_all_Acks |      268412     25.64%     25.64% |           0      0.00%     25.64% |       95818      9.15%     34.79% |       96812      9.25%     44.03% |       96095      9.18%     53.21% |       96290      9.20%     62.41% |           0      0.00%     62.41% |      393603     37.59%    100.00%
system.ruby.L1Cache_Controller.IM.Data_all_Acks::total      1047030                      
system.ruby.L1Cache_Controller.SM.Ack    |           0      0.00%      0.00% |           0      0.00%      0.00% |           0      0.00%      0.00% |           0      0.00%      0.00% |           0      0.00%      0.00% |           1    100.00%    100.00% |           0      0.00%    100.00% |           0      0.00%    100.00%
system.ruby.L1Cache_Controller.SM.Ack::total            1                      
system.ruby.L1Cache_Controller.SM.Ack_all |           0      0.00%      0.00% |           0      0.00%      0.00% |           0      0.00%      0.00% |           0      0.00%      0.00% |           8     88.89%     88.89% |           1     11.11%    100.00% |           0      0.00%    100.00% |           0      0.00%    100.00%
system.ruby.L1Cache_Controller.SM.Ack_all::total            9                      
system.ruby.L1Cache_Controller.IS_I.Data_all_Acks |           0      0.00%      0.00% |           0      0.00%      0.00% |          28     26.42%     26.42% |          29     27.36%     53.77% |          30     28.30%     82.08% |          19     17.92%    100.00% |           0      0.00%    100.00% |           0      0.00%    100.00%
system.ruby.L1Cache_Controller.IS_I.Data_all_Acks::total          106                      
system.ruby.L1Cache_Controller.M_I.Ifetch |           1    100.00%    100.00% |           0      0.00%    100.00% |           0      0.00%    100.00% |           0      0.00%    100.00% |           0      0.00%    100.00% |           0      0.00%    100.00% |           0      0.00%    100.00% |           0      0.00%    100.00%
system.ruby.L1Cache_Controller.M_I.Ifetch::total            1                      
system.ruby.L1Cache_Controller.M_I.Inv   |           0      0.00%      0.00% |           0      0.00%      0.00% |       20759     24.98%     24.98% |       20782     25.01%     49.99% |       20836     25.07%     75.06% |       20727     24.94%    100.00% |           0      0.00%    100.00% |           0      0.00%    100.00%
system.ruby.L1Cache_Controller.M_I.Inv::total        83104                      
system.ruby.L1Cache_Controller.M_I.Fwd_GETS |           0      0.00%      0.00% |           0      0.00%      0.00% |           4     44.44%     44.44% |           4     44.44%     88.89% |           1     11.11%    100.00% |           0      0.00%    100.00% |           0      0.00%    100.00% |           0      0.00%    100.00%
system.ruby.L1Cache_Controller.M_I.Fwd_GETS::total            9                      
system.ruby.L1Cache_Controller.M_I.WB_Ack |      309470     20.69%     20.69% |           0      0.00%     20.69% |       99659      6.66%     27.36% |      101126      6.76%     34.12% |       98751      6.60%     40.73% |       99215      6.63%     47.36% |           0      0.00%     47.36% |      787189     52.64%    100.00%
system.ruby.L1Cache_Controller.M_I.WB_Ack::total      1495410                      
system.ruby.L1Cache_Controller.SINK_WB_ACK.WB_Ack |           0      0.00%      0.00% |           0      0.00%      0.00% |       20763     24.98%     24.98% |       20786     25.01%     49.99% |       20837     25.07%     75.06% |       20727     24.94%    100.00% |           0      0.00%    100.00% |           0      0.00%    100.00%
system.ruby.L1Cache_Controller.SINK_WB_ACK.WB_Ack::total        83113                      
system.ruby.L2Cache_Controller.L1_GET_INSTR         1346      0.00%      0.00%
system.ruby.L2Cache_Controller.L1_GETS        1125976      0.00%      0.00%
system.ruby.L2Cache_Controller.L1_GETX        1047039      0.00%      0.00%
system.ruby.L2Cache_Controller.L1_PUTX        1495426      0.00%      0.00%
system.ruby.L2Cache_Controller.L1_PUTX_old       112783      0.00%      0.00%
system.ruby.L2Cache_Controller.L2_Replacement       819681      0.00%      0.00%
system.ruby.L2Cache_Controller.L2_Replacement_clean      1689327      0.00%      0.00%
system.ruby.L2Cache_Controller.Mem_Data       2157847      0.00%      0.00%
system.ruby.L2Cache_Controller.Mem_Ack        2155882      0.00%      0.00%
system.ruby.L2Cache_Controller.WB_Data         225700      0.00%      0.00%
system.ruby.L2Cache_Controller.WB_Data_clean        41666      0.00%      0.00%
system.ruby.L2Cache_Controller.Ack               3732      0.00%      0.00%
system.ruby.L2Cache_Controller.Ack_all         409140      0.00%      0.00%
system.ruby.L2Cache_Controller.Unblock           1744      0.00%      0.00%
system.ruby.L2Cache_Controller.Exclusive_Unblock      2167392      0.00%      0.00%
system.ruby.L2Cache_Controller.NP.L1_GET_INSTR         1207      0.00%      0.00%
system.ruby.L2Cache_Controller.NP.L1_GETS      1111579      0.00%      0.00%
system.ruby.L2Cache_Controller.NP.L1_GETX      1045061      0.00%      0.00%
system.ruby.L2Cache_Controller.NP.L1_PUTX_old        56574      0.00%      0.00%
system.ruby.L2Cache_Controller.SS.L1_GET_INSTR          130      0.00%      0.00%
system.ruby.L2Cache_Controller.SS.L1_GETS           16      0.00%      0.00%
system.ruby.L2Cache_Controller.SS.L1_GETX            9      0.00%      0.00%
system.ruby.L2Cache_Controller.SS.L1_PUTX            9      0.00%      0.00%
system.ruby.L2Cache_Controller.SS.L2_Replacement           63      0.00%      0.00%
system.ruby.L2Cache_Controller.SS.L2_Replacement_clean         4686      0.00%      0.00%
system.ruby.L2Cache_Controller.M.L1_GET_INSTR            1      0.00%      0.00%
system.ruby.L2Cache_Controller.M.L1_GETS        10652      0.00%      0.00%
system.ruby.L2Cache_Controller.M.L1_GETX         1962      0.00%      0.00%
system.ruby.L2Cache_Controller.M.L2_Replacement       819482      0.00%      0.00%
system.ruby.L2Cache_Controller.M.L2_Replacement_clean       661638      0.00%      0.00%
system.ruby.L2Cache_Controller.MT.L1_GETS         1744      0.00%      0.00%
system.ruby.L2Cache_Controller.MT.L1_GETX            7      0.00%      0.00%
system.ruby.L2Cache_Controller.MT.L1_PUTX      1495410      0.00%      0.00%
system.ruby.L2Cache_Controller.MT.L2_Replacement          136      0.00%      0.00%
system.ruby.L2Cache_Controller.MT.L2_Replacement_clean       669877      0.00%      0.00%
system.ruby.L2Cache_Controller.M_I.L1_GETS           43      0.00%      0.00%
system.ruby.L2Cache_Controller.M_I.L1_PUTX_old        26525      0.00%      0.00%
system.ruby.L2Cache_Controller.M_I.Mem_Ack      2155882      0.00%      0.00%
system.ruby.L2Cache_Controller.MT_I.L1_PUTX_old            2      0.00%      0.00%
system.ruby.L2Cache_Controller.MT_I.WB_Data          122      0.00%      0.00%
system.ruby.L2Cache_Controller.MT_I.WB_Data_clean            2      0.00%      0.00%
system.ruby.L2Cache_Controller.MT_I.Ack_all           12      0.00%      0.00%
system.ruby.L2Cache_Controller.MCT_I.L1_GETS           42      0.00%      0.00%
system.ruby.L2Cache_Controller.MCT_I.L1_PUTX_old        29677      0.00%      0.00%
system.ruby.L2Cache_Controller.MCT_I.WB_Data       225506      0.00%      0.00%
system.ruby.L2Cache_Controller.MCT_I.WB_Data_clean        39992      0.00%      0.00%
system.ruby.L2Cache_Controller.MCT_I.Ack_all       404379      0.00%      0.00%
system.ruby.L2Cache_Controller.I_I.Ack           3656      0.00%      0.00%
system.ruby.L2Cache_Controller.I_I.Ack_all         4686      0.00%      0.00%
system.ruby.L2Cache_Controller.S_I.Ack             76      0.00%      0.00%
system.ruby.L2Cache_Controller.S_I.Ack_all           63      0.00%      0.00%
system.ruby.L2Cache_Controller.ISS.L1_GETS         1878      0.00%      0.00%
system.ruby.L2Cache_Controller.ISS.L1_PUTX_old            5      0.00%      0.00%
system.ruby.L2Cache_Controller.ISS.L2_Replacement_clean       218428      0.00%      0.00%
system.ruby.L2Cache_Controller.ISS.Mem_Data      1109701      0.00%      0.00%
system.ruby.L2Cache_Controller.IS.L1_GET_INSTR            8      0.00%      0.00%
system.ruby.L2Cache_Controller.IS.L2_Replacement_clean          779      0.00%      0.00%
system.ruby.L2Cache_Controller.IS.Mem_Data         3085      0.00%      0.00%
system.ruby.L2Cache_Controller.IM.L2_Replacement_clean       125711      0.00%      0.00%
system.ruby.L2Cache_Controller.IM.Mem_Data      1045061      0.00%      0.00%
system.ruby.L2Cache_Controller.SS_MB.Exclusive_Unblock            9      0.00%      0.00%
system.ruby.L2Cache_Controller.MT_MB.L1_GETS           22      0.00%      0.00%
system.ruby.L2Cache_Controller.MT_MB.L2_Replacement_clean         8208      0.00%      0.00%
system.ruby.L2Cache_Controller.MT_MB.Exclusive_Unblock      2167383      0.00%      0.00%
system.ruby.L2Cache_Controller.MT_IIB.L1_PUTX            7      0.00%      0.00%
system.ruby.L2Cache_Controller.MT_IIB.WB_Data            3      0.00%      0.00%
system.ruby.L2Cache_Controller.MT_IIB.WB_Data_clean           93      0.00%      0.00%
system.ruby.L2Cache_Controller.MT_IIB.Unblock         1648      0.00%      0.00%
system.ruby.L2Cache_Controller.MT_IB.WB_Data           69      0.00%      0.00%
system.ruby.L2Cache_Controller.MT_IB.WB_Data_clean         1579      0.00%      0.00%
system.ruby.L2Cache_Controller.MT_SB.Unblock           96      0.00%      0.00%

---------- End Simulation Statistics   ----------
