
---------- Begin Simulation Statistics ----------
sim_seconds                                  0.145865                       # Number of seconds simulated
sim_ticks                                145864890000                       # Number of ticks simulated
final_tick                               145872093500                       # Number of ticks from beginning of simulation (restored from checkpoints and never reset)
sim_freq                                 1000000000000                       # Frequency of simulated ticks
host_inst_rate                                  25150                       # Simulator instruction rate (inst/s)
host_op_rate                                    41997                       # Simulator op (including micro ops) rate (op/s)
host_tick_rate                               71407185                       # Simulator tick rate (ticks/s)
host_mem_usage                                1680596                       # Number of bytes of host memory used
host_seconds                                  2042.72                       # Real time elapsed on the host
sim_insts                                    51374534                       # Number of instructions simulated
sim_ops                                      85788684                       # Number of ops (including micro ops) simulated
system.voltage_domain.voltage                       1                       # Voltage in Volts
system.clk_domain.clock                          1000                       # Clock period in ticks
system.mem_ctrls.bytes_read::ruby.dir_cntrl0    276225536                       # Number of bytes read from this memory
system.mem_ctrls.bytes_read::total          276225536                       # Number of bytes read from this memory
system.mem_ctrls.bytes_written::ruby.dir_cntrl0    133767168                       # Number of bytes written to this memory
system.mem_ctrls.bytes_written::total       133767168                       # Number of bytes written to this memory
system.mem_ctrls.num_reads::ruby.dir_cntrl0      2158012                       # Number of read requests responded to by this memory
system.mem_ctrls.num_reads::total             2158012                       # Number of read requests responded to by this memory
system.mem_ctrls.num_writes::ruby.dir_cntrl0      1045056                       # Number of write requests responded to by this memory
system.mem_ctrls.num_writes::total            1045056                       # Number of write requests responded to by this memory
system.mem_ctrls.bw_read::ruby.dir_cntrl0   1893708184                       # Total read bandwidth from this memory (bytes/s)
system.mem_ctrls.bw_read::total            1893708184                       # Total read bandwidth from this memory (bytes/s)
system.mem_ctrls.bw_write::ruby.dir_cntrl0    917062139                       # Write bandwidth from this memory (bytes/s)
system.mem_ctrls.bw_write::total            917062139                       # Write bandwidth from this memory (bytes/s)
system.mem_ctrls.bw_total::ruby.dir_cntrl0   2810770323                       # Total bandwidth to/from this memory (bytes/s)
system.mem_ctrls.bw_total::total           2810770323                       # Total bandwidth to/from this memory (bytes/s)
system.mem_ctrls.readReqs                     2158012                       # Number of read requests accepted
system.mem_ctrls.writeReqs                    1045056                       # Number of write requests accepted
system.mem_ctrls.readBursts                   4316024                       # Number of DRAM read bursts, including those serviced by the write queue
system.mem_ctrls.writeBursts                  2090112                       # Number of DRAM write bursts, including those merged in the write queue
system.mem_ctrls.bytesReadDRAM              276019392                       # Total number of bytes read from DRAM
system.mem_ctrls.bytesReadWrQ                  206144                       # Total number of bytes read from write queue
system.mem_ctrls.bytesWritten               133764416                       # Total number of bytes written to DRAM
system.mem_ctrls.bytesReadSys               276225536                       # Total read bytes from the system interface side
system.mem_ctrls.bytesWrittenSys            133767168                       # Total written bytes from the system interface side
system.mem_ctrls.servicedByWrQ                   3221                       # Number of DRAM read bursts serviced by the write queue
system.mem_ctrls.mergedWrBursts                    24                       # Number of DRAM write bursts merged with an existing one
system.mem_ctrls.neitherReadNorWriteReqs            0                       # Number of requests that are neither read nor write
system.mem_ctrls.perBankRdBursts::0            267450                       # Per bank write bursts
system.mem_ctrls.perBankRdBursts::1            267250                       # Per bank write bursts
system.mem_ctrls.perBankRdBursts::2            270954                       # Per bank write bursts
system.mem_ctrls.perBankRdBursts::3            270218                       # Per bank write bursts
system.mem_ctrls.perBankRdBursts::4            266515                       # Per bank write bursts
system.mem_ctrls.perBankRdBursts::5            266470                       # Per bank write bursts
system.mem_ctrls.perBankRdBursts::6            264422                       # Per bank write bursts
system.mem_ctrls.perBankRdBursts::7            253832                       # Per bank write bursts
system.mem_ctrls.perBankRdBursts::8            263945                       # Per bank write bursts
system.mem_ctrls.perBankRdBursts::9            258151                       # Per bank write bursts
system.mem_ctrls.perBankRdBursts::10           293082                       # Per bank write bursts
system.mem_ctrls.perBankRdBursts::11           303831                       # Per bank write bursts
system.mem_ctrls.perBankRdBursts::12           266688                       # Per bank write bursts
system.mem_ctrls.perBankRdBursts::13           266600                       # Per bank write bursts
system.mem_ctrls.perBankRdBursts::14           266545                       # Per bank write bursts
system.mem_ctrls.perBankRdBursts::15           266850                       # Per bank write bursts
system.mem_ctrls.perBankWrBursts::0            131586                       # Per bank write bursts
system.mem_ctrls.perBankWrBursts::1            131808                       # Per bank write bursts
system.mem_ctrls.perBankWrBursts::2            131788                       # Per bank write bursts
system.mem_ctrls.perBankWrBursts::3            131845                       # Per bank write bursts
system.mem_ctrls.perBankWrBursts::4            131596                       # Per bank write bursts
system.mem_ctrls.perBankWrBursts::5            131654                       # Per bank write bursts
system.mem_ctrls.perBankWrBursts::6            131638                       # Per bank write bursts
system.mem_ctrls.perBankWrBursts::7            131601                       # Per bank write bursts
system.mem_ctrls.perBankWrBursts::8            131596                       # Per bank write bursts
system.mem_ctrls.perBankWrBursts::9            123462                       # Per bank write bursts
system.mem_ctrls.perBankWrBursts::10           122892                       # Per bank write bursts
system.mem_ctrls.perBankWrBursts::11           131996                       # Per bank write bursts
system.mem_ctrls.perBankWrBursts::12           131706                       # Per bank write bursts
system.mem_ctrls.perBankWrBursts::13           131618                       # Per bank write bursts
system.mem_ctrls.perBankWrBursts::14           131616                       # Per bank write bursts
system.mem_ctrls.perBankWrBursts::15           131667                       # Per bank write bursts
system.mem_ctrls.numRdRetry                   1482737                       # Number of times read queue was full causing retry
system.mem_ctrls.numWrRetry                     14028                       # Number of times write queue was full causing retry
system.mem_ctrls.totGap                  145865070500                       # Total gap between requests
system.mem_ctrls.readPktSize::0                     0                       # Read request sizes (log2)
system.mem_ctrls.readPktSize::1                     0                       # Read request sizes (log2)
system.mem_ctrls.readPktSize::2                     0                       # Read request sizes (log2)
system.mem_ctrls.readPktSize::3                     0                       # Read request sizes (log2)
system.mem_ctrls.readPktSize::4                     0                       # Read request sizes (log2)
system.mem_ctrls.readPktSize::5                     0                       # Read request sizes (log2)
system.mem_ctrls.readPktSize::6               4316024                       # Read request sizes (log2)
system.mem_ctrls.writePktSize::0                    0                       # Write request sizes (log2)
system.mem_ctrls.writePktSize::1                    0                       # Write request sizes (log2)
system.mem_ctrls.writePktSize::2                    0                       # Write request sizes (log2)
system.mem_ctrls.writePktSize::3                    0                       # Write request sizes (log2)
system.mem_ctrls.writePktSize::4                    0                       # Write request sizes (log2)
system.mem_ctrls.writePktSize::5                    0                       # Write request sizes (log2)
system.mem_ctrls.writePktSize::6              2090112                       # Write request sizes (log2)
system.mem_ctrls.rdQLenPdf::0                  334200                       # What read queue length does an incoming req see
system.mem_ctrls.rdQLenPdf::1                  344513                       # What read queue length does an incoming req see
system.mem_ctrls.rdQLenPdf::2                   87042                       # What read queue length does an incoming req see
system.mem_ctrls.rdQLenPdf::3                  113863                       # What read queue length does an incoming req see
system.mem_ctrls.rdQLenPdf::4                  168088                       # What read queue length does an incoming req see
system.mem_ctrls.rdQLenPdf::5                  197003                       # What read queue length does an incoming req see
system.mem_ctrls.rdQLenPdf::6                  205763                       # What read queue length does an incoming req see
system.mem_ctrls.rdQLenPdf::7                  186693                       # What read queue length does an incoming req see
system.mem_ctrls.rdQLenPdf::8                  153934                       # What read queue length does an incoming req see
system.mem_ctrls.rdQLenPdf::9                  132739                       # What read queue length does an incoming req see
system.mem_ctrls.rdQLenPdf::10                 112393                       # What read queue length does an incoming req see
system.mem_ctrls.rdQLenPdf::11                 102956                       # What read queue length does an incoming req see
system.mem_ctrls.rdQLenPdf::12                  84899                       # What read queue length does an incoming req see
system.mem_ctrls.rdQLenPdf::13                  75787                       # What read queue length does an incoming req see
system.mem_ctrls.rdQLenPdf::14                  51405                       # What read queue length does an incoming req see
system.mem_ctrls.rdQLenPdf::15                  50532                       # What read queue length does an incoming req see
system.mem_ctrls.rdQLenPdf::16                  19575                       # What read queue length does an incoming req see
system.mem_ctrls.rdQLenPdf::17                  21024                       # What read queue length does an incoming req see
system.mem_ctrls.rdQLenPdf::18                  21693                       # What read queue length does an incoming req see
system.mem_ctrls.rdQLenPdf::19                  23271                       # What read queue length does an incoming req see
system.mem_ctrls.rdQLenPdf::20                  24582                       # What read queue length does an incoming req see
system.mem_ctrls.rdQLenPdf::21                  26730                       # What read queue length does an incoming req see
system.mem_ctrls.rdQLenPdf::22                  27802                       # What read queue length does an incoming req see
system.mem_ctrls.rdQLenPdf::23                  29116                       # What read queue length does an incoming req see
system.mem_ctrls.rdQLenPdf::24                  28776                       # What read queue length does an incoming req see
system.mem_ctrls.rdQLenPdf::25                  29775                       # What read queue length does an incoming req see
system.mem_ctrls.rdQLenPdf::26                  28939                       # What read queue length does an incoming req see
system.mem_ctrls.rdQLenPdf::27                  29165                       # What read queue length does an incoming req see
system.mem_ctrls.rdQLenPdf::28                  29020                       # What read queue length does an incoming req see
system.mem_ctrls.rdQLenPdf::29                  29412                       # What read queue length does an incoming req see
system.mem_ctrls.rdQLenPdf::30                 778297                       # What read queue length does an incoming req see
system.mem_ctrls.rdQLenPdf::31                 763816                       # What read queue length does an incoming req see
system.mem_ctrls.wrQLenPdf::0                       1                       # What write queue length does an incoming req see
system.mem_ctrls.wrQLenPdf::1                       1                       # What write queue length does an incoming req see
system.mem_ctrls.wrQLenPdf::2                       1                       # What write queue length does an incoming req see
system.mem_ctrls.wrQLenPdf::3                       1                       # What write queue length does an incoming req see
system.mem_ctrls.wrQLenPdf::4                       1                       # What write queue length does an incoming req see
system.mem_ctrls.wrQLenPdf::5                       1                       # What write queue length does an incoming req see
system.mem_ctrls.wrQLenPdf::6                       1                       # What write queue length does an incoming req see
system.mem_ctrls.wrQLenPdf::7                       1                       # What write queue length does an incoming req see
system.mem_ctrls.wrQLenPdf::8                       1                       # What write queue length does an incoming req see
system.mem_ctrls.wrQLenPdf::9                       1                       # What write queue length does an incoming req see
system.mem_ctrls.wrQLenPdf::10                      1                       # What write queue length does an incoming req see
system.mem_ctrls.wrQLenPdf::11                      1                       # What write queue length does an incoming req see
system.mem_ctrls.wrQLenPdf::12                      1                       # What write queue length does an incoming req see
system.mem_ctrls.wrQLenPdf::13                      1                       # What write queue length does an incoming req see
system.mem_ctrls.wrQLenPdf::14                      1                       # What write queue length does an incoming req see
system.mem_ctrls.wrQLenPdf::15                   1165                       # What write queue length does an incoming req see
system.mem_ctrls.wrQLenPdf::16                   1398                       # What write queue length does an incoming req see
system.mem_ctrls.wrQLenPdf::17                  33613                       # What write queue length does an incoming req see
system.mem_ctrls.wrQLenPdf::18                  34666                       # What write queue length does an incoming req see
system.mem_ctrls.wrQLenPdf::19                  35343                       # What write queue length does an incoming req see
system.mem_ctrls.wrQLenPdf::20                  39662                       # What write queue length does an incoming req see
system.mem_ctrls.wrQLenPdf::21                  41802                       # What write queue length does an incoming req see
system.mem_ctrls.wrQLenPdf::22                  53382                       # What write queue length does an incoming req see
system.mem_ctrls.wrQLenPdf::23                  59667                       # What write queue length does an incoming req see
system.mem_ctrls.wrQLenPdf::24                  81092                       # What write queue length does an incoming req see
system.mem_ctrls.wrQLenPdf::25                  85330                       # What write queue length does an incoming req see
system.mem_ctrls.wrQLenPdf::26                  98252                       # What write queue length does an incoming req see
system.mem_ctrls.wrQLenPdf::27                 101662                       # What write queue length does an incoming req see
system.mem_ctrls.wrQLenPdf::28                 110816                       # What write queue length does an incoming req see
system.mem_ctrls.wrQLenPdf::29                 112717                       # What write queue length does an incoming req see
system.mem_ctrls.wrQLenPdf::30                 114746                       # What write queue length does an incoming req see
system.mem_ctrls.wrQLenPdf::31                 113349                       # What write queue length does an incoming req see
system.mem_ctrls.wrQLenPdf::32                 114214                       # What write queue length does an incoming req see
system.mem_ctrls.wrQLenPdf::33                  78970                       # What write queue length does an incoming req see
system.mem_ctrls.wrQLenPdf::34                  25662                       # What write queue length does an incoming req see
system.mem_ctrls.wrQLenPdf::35                  15136                       # What write queue length does an incoming req see
system.mem_ctrls.wrQLenPdf::36                   9469                       # What write queue length does an incoming req see
system.mem_ctrls.wrQLenPdf::37                   7586                       # What write queue length does an incoming req see
system.mem_ctrls.wrQLenPdf::38                   5399                       # What write queue length does an incoming req see
system.mem_ctrls.wrQLenPdf::39                   7653                       # What write queue length does an incoming req see
system.mem_ctrls.wrQLenPdf::40                   7411                       # What write queue length does an incoming req see
system.mem_ctrls.wrQLenPdf::41                  10788                       # What write queue length does an incoming req see
system.mem_ctrls.wrQLenPdf::42                  11456                       # What write queue length does an incoming req see
system.mem_ctrls.wrQLenPdf::43                  15975                       # What write queue length does an incoming req see
system.mem_ctrls.wrQLenPdf::44                  17177                       # What write queue length does an incoming req see
system.mem_ctrls.wrQLenPdf::45                  22433                       # What write queue length does an incoming req see
system.mem_ctrls.wrQLenPdf::46                  24062                       # What write queue length does an incoming req see
system.mem_ctrls.wrQLenPdf::47                  29988                       # What write queue length does an incoming req see
system.mem_ctrls.wrQLenPdf::48                  32108                       # What write queue length does an incoming req see
system.mem_ctrls.wrQLenPdf::49                  38311                       # What write queue length does an incoming req see
system.mem_ctrls.wrQLenPdf::50                  41188                       # What write queue length does an incoming req see
system.mem_ctrls.wrQLenPdf::51                  48083                       # What write queue length does an incoming req see
system.mem_ctrls.wrQLenPdf::52                  52475                       # What write queue length does an incoming req see
system.mem_ctrls.wrQLenPdf::53                  61216                       # What write queue length does an incoming req see
system.mem_ctrls.wrQLenPdf::54                  70474                       # What write queue length does an incoming req see
system.mem_ctrls.wrQLenPdf::55                  57043                       # What write queue length does an incoming req see
system.mem_ctrls.wrQLenPdf::56                  48355                       # What write queue length does an incoming req see
system.mem_ctrls.wrQLenPdf::57                  33179                       # What write queue length does an incoming req see
system.mem_ctrls.wrQLenPdf::58                  25392                       # What write queue length does an incoming req see
system.mem_ctrls.wrQLenPdf::59                  16466                       # What write queue length does an incoming req see
system.mem_ctrls.wrQLenPdf::60                  12278                       # What write queue length does an incoming req see
system.mem_ctrls.wrQLenPdf::61                   7938                       # What write queue length does an incoming req see
system.mem_ctrls.wrQLenPdf::62                  13901                       # What write queue length does an incoming req see
system.mem_ctrls.wrQLenPdf::63                   9625                       # What write queue length does an incoming req see
system.mem_ctrls.bytesPerActivate::samples      1544138                       # Bytes accessed per row activation
system.mem_ctrls.bytesPerActivate::mean    265.380799                       # Bytes accessed per row activation
system.mem_ctrls.bytesPerActivate::gmean   191.965000                       # Bytes accessed per row activation
system.mem_ctrls.bytesPerActivate::stdev   276.429880                       # Bytes accessed per row activation
system.mem_ctrls.bytesPerActivate::0-127        34695      2.25%      2.25% # Bytes accessed per row activation
system.mem_ctrls.bytesPerActivate::128-255       989156     64.06%     66.31% # Bytes accessed per row activation
system.mem_ctrls.bytesPerActivate::256-383       272148     17.62%     83.93% # Bytes accessed per row activation
system.mem_ctrls.bytesPerActivate::384-511        24770      1.60%     85.53% # Bytes accessed per row activation
system.mem_ctrls.bytesPerActivate::512-639        27264      1.77%     87.30% # Bytes accessed per row activation
system.mem_ctrls.bytesPerActivate::640-767        19053      1.23%     88.53% # Bytes accessed per row activation
system.mem_ctrls.bytesPerActivate::768-895        17401      1.13%     89.66% # Bytes accessed per row activation
system.mem_ctrls.bytesPerActivate::896-1023        18724      1.21%     90.87% # Bytes accessed per row activation
system.mem_ctrls.bytesPerActivate::1024-1151       140927      9.13%    100.00% # Bytes accessed per row activation
system.mem_ctrls.bytesPerActivate::total      1544138                       # Bytes accessed per row activation
system.mem_ctrls.rdPerTurnAround::samples       130298                       # Reads before turning the bus around for writes
system.mem_ctrls.rdPerTurnAround::mean      33.093025                       # Reads before turning the bus around for writes
system.mem_ctrls.rdPerTurnAround::gmean     22.540721                       # Reads before turning the bus around for writes
system.mem_ctrls.rdPerTurnAround::stdev    115.906980                       # Reads before turning the bus around for writes
system.mem_ctrls.rdPerTurnAround::0-1023       129858     99.66%     99.66% # Reads before turning the bus around for writes
system.mem_ctrls.rdPerTurnAround::1024-2047          435      0.33%    100.00% # Reads before turning the bus around for writes
system.mem_ctrls.rdPerTurnAround::2048-3071            1      0.00%    100.00% # Reads before turning the bus around for writes
system.mem_ctrls.rdPerTurnAround::3072-4095            1      0.00%    100.00% # Reads before turning the bus around for writes
system.mem_ctrls.rdPerTurnAround::7168-8191            2      0.00%    100.00% # Reads before turning the bus around for writes
system.mem_ctrls.rdPerTurnAround::23552-24575            1      0.00%    100.00% # Reads before turning the bus around for writes
system.mem_ctrls.rdPerTurnAround::total        130298                       # Reads before turning the bus around for writes
system.mem_ctrls.wrPerTurnAround::samples       130298                       # Writes before turning the bus around for reads
system.mem_ctrls.wrPerTurnAround::mean      16.040684                       # Writes before turning the bus around for reads
system.mem_ctrls.wrPerTurnAround::gmean     16.034482                       # Writes before turning the bus around for reads
system.mem_ctrls.wrPerTurnAround::stdev      0.536998                       # Writes before turning the bus around for reads
system.mem_ctrls.wrPerTurnAround::16           128719     98.79%     98.79% # Writes before turning the bus around for reads
system.mem_ctrls.wrPerTurnAround::17               63      0.05%     98.84% # Writes before turning the bus around for reads
system.mem_ctrls.wrPerTurnAround::18             1174      0.90%     99.74% # Writes before turning the bus around for reads
system.mem_ctrls.wrPerTurnAround::19               43      0.03%     99.77% # Writes before turning the bus around for reads
system.mem_ctrls.wrPerTurnAround::20               56      0.04%     99.81% # Writes before turning the bus around for reads
system.mem_ctrls.wrPerTurnAround::21               34      0.03%     99.84% # Writes before turning the bus around for reads
system.mem_ctrls.wrPerTurnAround::22               27      0.02%     99.86% # Writes before turning the bus around for reads
system.mem_ctrls.wrPerTurnAround::23               13      0.01%     99.87% # Writes before turning the bus around for reads
system.mem_ctrls.wrPerTurnAround::24               35      0.03%     99.90% # Writes before turning the bus around for reads
system.mem_ctrls.wrPerTurnAround::25               12      0.01%     99.91% # Writes before turning the bus around for reads
system.mem_ctrls.wrPerTurnAround::26               23      0.02%     99.92% # Writes before turning the bus around for reads
system.mem_ctrls.wrPerTurnAround::27                8      0.01%     99.93% # Writes before turning the bus around for reads
system.mem_ctrls.wrPerTurnAround::28               28      0.02%     99.95% # Writes before turning the bus around for reads
system.mem_ctrls.wrPerTurnAround::29                5      0.00%     99.96% # Writes before turning the bus around for reads
system.mem_ctrls.wrPerTurnAround::30               12      0.01%     99.96% # Writes before turning the bus around for reads
system.mem_ctrls.wrPerTurnAround::31                5      0.00%     99.97% # Writes before turning the bus around for reads
system.mem_ctrls.wrPerTurnAround::32               11      0.01%     99.98% # Writes before turning the bus around for reads
system.mem_ctrls.wrPerTurnAround::33                5      0.00%     99.98% # Writes before turning the bus around for reads
system.mem_ctrls.wrPerTurnAround::34                8      0.01%     99.99% # Writes before turning the bus around for reads
system.mem_ctrls.wrPerTurnAround::35                1      0.00%     99.99% # Writes before turning the bus around for reads
system.mem_ctrls.wrPerTurnAround::36                5      0.00%     99.99% # Writes before turning the bus around for reads
system.mem_ctrls.wrPerTurnAround::37                3      0.00%     99.99% # Writes before turning the bus around for reads
system.mem_ctrls.wrPerTurnAround::38                7      0.01%    100.00% # Writes before turning the bus around for reads
system.mem_ctrls.wrPerTurnAround::39                1      0.00%    100.00% # Writes before turning the bus around for reads
system.mem_ctrls.wrPerTurnAround::total        130298                       # Writes before turning the bus around for reads
system.mem_ctrls.totQLat                 547717350779                       # Total ticks spent queuing
system.mem_ctrls.totMemAccLat            628582407029                       # Total ticks spent from burst creation until serviced by the DRAM
system.mem_ctrls.totBusLat                21564015000                       # Total ticks spent in databus transfers
system.mem_ctrls.avgQLat                    126998.00                       # Average queueing delay per DRAM burst
system.mem_ctrls.avgBusLat                    5000.00                       # Average bus latency per DRAM burst
system.mem_ctrls.avgMemAccLat               145748.00                       # Average memory access latency per DRAM burst
system.mem_ctrls.avgRdBW                      1892.29                       # Average DRAM read bandwidth in MiByte/s
system.mem_ctrls.avgWrBW                       917.04                       # Average achieved write bandwidth in MiByte/s
system.mem_ctrls.avgRdBWSys                   1893.71                       # Average system read bandwidth in MiByte/s
system.mem_ctrls.avgWrBWSys                    917.06                       # Average system write bandwidth in MiByte/s
system.mem_ctrls.peakBW                      12800.00                       # Theoretical peak bandwidth in MiByte/s
system.mem_ctrls.busUtil                        21.95                       # Data bus utilization in percentage
system.mem_ctrls.busUtilRead                    14.78                       # Data bus utilization in percentage for reads
system.mem_ctrls.busUtilWrite                    7.16                       # Data bus utilization in percentage for writes
system.mem_ctrls.avgRdQLen                       6.15                       # Average read queue length when enqueuing
system.mem_ctrls.avgWrQLen                      29.82                       # Average write queue length when enqueuing
system.mem_ctrls.readRowHits                  3191759                       # Number of row buffer hits during reads
system.mem_ctrls.writeRowHits                 1666979                       # Number of row buffer hits during writes
system.mem_ctrls.readRowHitRate                 74.01                       # Row buffer hit rate for reads
system.mem_ctrls.writeRowHitRate                79.76                       # Row buffer hit rate for writes
system.mem_ctrls.avgGap                      45539.17                       # Average gap between requests
system.mem_ctrls.pageHitRate                    75.88                       # Row buffer hit rate, read and write combined
system.mem_ctrls_0.actEnergy               5751685800                       # Energy for activate commands per rank (pJ)
system.mem_ctrls_0.preEnergy               3138320625                       # Energy for precharge commands per rank (pJ)
system.mem_ctrls_0.readEnergy             16591809000                       # Energy for read commands per rank (pJ)
system.mem_ctrls_0.writeEnergy             6826783680                       # Energy for write commands per rank (pJ)
system.mem_ctrls_0.refreshEnergy           9527363040                       # Energy for refresh commands per rank (pJ)
system.mem_ctrls_0.actBackEnergy          69274296495                       # Energy for active background per rank (pJ)
system.mem_ctrls_0.preBackEnergy          26753803500                       # Energy for precharge background per rank (pJ)
system.mem_ctrls_0.totalEnergy           137864062140                       # Total energy per rank (pJ)
system.mem_ctrls_0.averagePower            945.129652                       # Core power per rank (mW)
system.mem_ctrls_0.memoryStateTime::IDLE  43836717780                       # Time in different power states
system.mem_ctrls_0.memoryStateTime::REF    4870840000                       # Time in different power states
system.mem_ctrls_0.memoryStateTime::PRE_PDN            0                       # Time in different power states
system.mem_ctrls_0.memoryStateTime::ACT   97160330720                       # Time in different power states
system.mem_ctrls_0.memoryStateTime::ACT_PDN            0                       # Time in different power states
system.mem_ctrls_1.actEnergy               5922065520                       # Energy for activate commands per rank (pJ)
system.mem_ctrls_1.preEnergy               3231285750                       # Energy for precharge commands per rank (pJ)
system.mem_ctrls_1.readEnergy             17048834400                       # Energy for read commands per rank (pJ)
system.mem_ctrls_1.writeEnergy             6716863440                       # Energy for write commands per rank (pJ)
system.mem_ctrls_1.refreshEnergy           9527363040                       # Energy for refresh commands per rank (pJ)
system.mem_ctrls_1.actBackEnergy          67613270895                       # Energy for active background per rank (pJ)
system.mem_ctrls_1.preBackEnergy          28210833750                       # Energy for precharge background per rank (pJ)
system.mem_ctrls_1.totalEnergy           138270516795                       # Total energy per rank (pJ)
system.mem_ctrls_1.averagePower            947.916215                       # Core power per rank (mW)
system.mem_ctrls_1.memoryStateTime::IDLE  46256829293                       # Time in different power states
system.mem_ctrls_1.memoryStateTime::REF    4870840000                       # Time in different power states
system.mem_ctrls_1.memoryStateTime::PRE_PDN            0                       # Time in different power states
system.mem_ctrls_1.memoryStateTime::ACT   94741915707                       # Time in different power states
system.mem_ctrls_1.memoryStateTime::ACT_PDN            0                       # Time in different power states
system.ruby_clk_domain.clock                      500                       # Clock period in ticks
system.ruby.phys_mem.bytes_read::gpu.ce      50380812                       # Number of bytes read from this memory
system.ruby.phys_mem.bytes_read::gpu.shader_cores0.data      9801120                       # Number of bytes read from this memory
system.ruby.phys_mem.bytes_read::gpu.shader_cores0.inst          576                       # Number of bytes read from this memory
system.ruby.phys_mem.bytes_read::gpu.shader_cores1.data      9778464                       # Number of bytes read from this memory
system.ruby.phys_mem.bytes_read::gpu.shader_cores1.inst          576                       # Number of bytes read from this memory
system.ruby.phys_mem.bytes_read::gpu.shader_cores2.data      9778912                       # Number of bytes read from this memory
system.ruby.phys_mem.bytes_read::gpu.shader_cores2.inst          576                       # Number of bytes read from this memory
system.ruby.phys_mem.bytes_read::gpu.shader_cores3.data      9700960                       # Number of bytes read from this memory
system.ruby.phys_mem.bytes_read::gpu.shader_cores3.inst          576                       # Number of bytes read from this memory
system.ruby.phys_mem.bytes_read::switch_cpus0.inst    531340432                       # Number of bytes read from this memory
system.ruby.phys_mem.bytes_read::switch_cpus0.data     56200086                       # Number of bytes read from this memory
system.ruby.phys_mem.bytes_read::total      676983090                       # Number of bytes read from this memory
system.ruby.phys_mem.bytes_inst_read::gpu.shader_cores0.inst          576                       # Number of instructions bytes read from this memory
system.ruby.phys_mem.bytes_inst_read::gpu.shader_cores1.inst          576                       # Number of instructions bytes read from this memory
system.ruby.phys_mem.bytes_inst_read::gpu.shader_cores2.inst          576                       # Number of instructions bytes read from this memory
system.ruby.phys_mem.bytes_inst_read::gpu.shader_cores3.inst          576                       # Number of instructions bytes read from this memory
system.ruby.phys_mem.bytes_inst_read::switch_cpus0.inst    531340432                       # Number of instructions bytes read from this memory
system.ruby.phys_mem.bytes_inst_read::total    531342736                       # Number of instructions bytes read from this memory
system.ruby.phys_mem.bytes_written::gpu.ce     50380812                       # Number of bytes written to this memory
system.ruby.phys_mem.bytes_written::gpu.shader_cores0.data      4208640                       # Number of bytes written to this memory
system.ruby.phys_mem.bytes_written::gpu.shader_cores1.data      4199424                       # Number of bytes written to this memory
system.ruby.phys_mem.bytes_written::gpu.shader_cores2.data      4201472                       # Number of bytes written to this memory
system.ruby.phys_mem.bytes_written::gpu.shader_cores3.data      4167680                       # Number of bytes written to this memory
system.ruby.phys_mem.bytes_written::switch_cpus0.data     37552369                       # Number of bytes written to this memory
system.ruby.phys_mem.bytes_written::total    104710397                       # Number of bytes written to this memory
system.ruby.phys_mem.num_reads::gpu.ce         393603                       # Number of read requests responded to by this memory
system.ruby.phys_mem.num_reads::gpu.shader_cores0.data       172536                       # Number of read requests responded to by this memory
system.ruby.phys_mem.num_reads::gpu.shader_cores0.inst           36                       # Number of read requests responded to by this memory
system.ruby.phys_mem.num_reads::gpu.shader_cores1.data       172193                       # Number of read requests responded to by this memory
system.ruby.phys_mem.num_reads::gpu.shader_cores1.inst           36                       # Number of read requests responded to by this memory
system.ruby.phys_mem.num_reads::gpu.shader_cores2.data       172403                       # Number of read requests responded to by this memory
system.ruby.phys_mem.num_reads::gpu.shader_cores2.inst           36                       # Number of read requests responded to by this memory
system.ruby.phys_mem.num_reads::gpu.shader_cores3.data       170996                       # Number of read requests responded to by this memory
system.ruby.phys_mem.num_reads::gpu.shader_cores3.inst           36                       # Number of read requests responded to by this memory
system.ruby.phys_mem.num_reads::switch_cpus0.inst     66417554                       # Number of read requests responded to by this memory
system.ruby.phys_mem.num_reads::switch_cpus0.data     13587023                       # Number of read requests responded to by this memory
system.ruby.phys_mem.num_reads::total        81086452                       # Number of read requests responded to by this memory
system.ruby.phys_mem.num_writes::gpu.ce        393603                       # Number of write requests responded to by this memory
system.ruby.phys_mem.num_writes::gpu.shader_cores0.data        96507                       # Number of write requests responded to by this memory
system.ruby.phys_mem.num_writes::gpu.shader_cores1.data        96328                       # Number of write requests responded to by this memory
system.ruby.phys_mem.num_writes::gpu.shader_cores2.data        96492                       # Number of write requests responded to by this memory
system.ruby.phys_mem.num_writes::gpu.shader_cores3.data        95697                       # Number of write requests responded to by this memory
system.ruby.phys_mem.num_writes::switch_cpus0.data      6946312                       # Number of write requests responded to by this memory
system.ruby.phys_mem.num_writes::total        7724939                       # Number of write requests responded to by this memory
system.ruby.phys_mem.bw_read::gpu.ce        345393686                       # Total read bandwidth from this memory (bytes/s)
system.ruby.phys_mem.bw_read::gpu.shader_cores0.data     67193140                       # Total read bandwidth from this memory (bytes/s)
system.ruby.phys_mem.bw_read::gpu.shader_cores0.inst         3949                       # Total read bandwidth from this memory (bytes/s)
system.ruby.phys_mem.bw_read::gpu.shader_cores1.data     67037818                       # Total read bandwidth from this memory (bytes/s)
system.ruby.phys_mem.bw_read::gpu.shader_cores1.inst         3949                       # Total read bandwidth from this memory (bytes/s)
system.ruby.phys_mem.bw_read::gpu.shader_cores2.data     67040890                       # Total read bandwidth from this memory (bytes/s)
system.ruby.phys_mem.bw_read::gpu.shader_cores2.inst         3949                       # Total read bandwidth from this memory (bytes/s)
system.ruby.phys_mem.bw_read::gpu.shader_cores3.data     66506477                       # Total read bandwidth from this memory (bytes/s)
system.ruby.phys_mem.bw_read::gpu.shader_cores3.inst         3949                       # Total read bandwidth from this memory (bytes/s)
system.ruby.phys_mem.bw_read::switch_cpus0.inst   3642689012                       # Total read bandwidth from this memory (bytes/s)
system.ruby.phys_mem.bw_read::switch_cpus0.data    385288646                       # Total read bandwidth from this memory (bytes/s)
system.ruby.phys_mem.bw_read::total        4641165465                       # Total read bandwidth from this memory (bytes/s)
system.ruby.phys_mem.bw_inst_read::gpu.shader_cores0.inst         3949                       # Instruction read bandwidth from this memory (bytes/s)
system.ruby.phys_mem.bw_inst_read::gpu.shader_cores1.inst         3949                       # Instruction read bandwidth from this memory (bytes/s)
system.ruby.phys_mem.bw_inst_read::gpu.shader_cores2.inst         3949                       # Instruction read bandwidth from this memory (bytes/s)
system.ruby.phys_mem.bw_inst_read::gpu.shader_cores3.inst         3949                       # Instruction read bandwidth from this memory (bytes/s)
system.ruby.phys_mem.bw_inst_read::switch_cpus0.inst   3642689012                       # Instruction read bandwidth from this memory (bytes/s)
system.ruby.phys_mem.bw_inst_read::total   3642704807                       # Instruction read bandwidth from this memory (bytes/s)
system.ruby.phys_mem.bw_write::gpu.ce       345393686                       # Write bandwidth from this memory (bytes/s)
system.ruby.phys_mem.bw_write::gpu.shader_cores0.data     28853002                       # Write bandwidth from this memory (bytes/s)
system.ruby.phys_mem.bw_write::gpu.shader_cores1.data     28789820                       # Write bandwidth from this memory (bytes/s)
system.ruby.phys_mem.bw_write::gpu.shader_cores2.data     28803861                       # Write bandwidth from this memory (bytes/s)
system.ruby.phys_mem.bw_write::gpu.shader_cores3.data     28572194                       # Write bandwidth from this memory (bytes/s)
system.ruby.phys_mem.bw_write::switch_cpus0.data    257446250                       # Write bandwidth from this memory (bytes/s)
system.ruby.phys_mem.bw_write::total        717858814                       # Write bandwidth from this memory (bytes/s)
system.ruby.phys_mem.bw_total::gpu.ce       690787372                       # Total bandwidth to/from this memory (bytes/s)
system.ruby.phys_mem.bw_total::gpu.shader_cores0.data     96046142                       # Total bandwidth to/from this memory (bytes/s)
system.ruby.phys_mem.bw_total::gpu.shader_cores0.inst         3949                       # Total bandwidth to/from this memory (bytes/s)
system.ruby.phys_mem.bw_total::gpu.shader_cores1.data     95827639                       # Total bandwidth to/from this memory (bytes/s)
system.ruby.phys_mem.bw_total::gpu.shader_cores1.inst         3949                       # Total bandwidth to/from this memory (bytes/s)
system.ruby.phys_mem.bw_total::gpu.shader_cores2.data     95844751                       # Total bandwidth to/from this memory (bytes/s)
system.ruby.phys_mem.bw_total::gpu.shader_cores2.inst         3949                       # Total bandwidth to/from this memory (bytes/s)
system.ruby.phys_mem.bw_total::gpu.shader_cores3.data     95078672                       # Total bandwidth to/from this memory (bytes/s)
system.ruby.phys_mem.bw_total::gpu.shader_cores3.inst         3949                       # Total bandwidth to/from this memory (bytes/s)
system.ruby.phys_mem.bw_total::switch_cpus0.inst   3642689012                       # Total bandwidth to/from this memory (bytes/s)
system.ruby.phys_mem.bw_total::switch_cpus0.data    642734897                       # Total bandwidth to/from this memory (bytes/s)
system.ruby.phys_mem.bw_total::total       5359024279                       # Total bandwidth to/from this memory (bytes/s)
system.cpu_voltage_domain.voltage                   1                       # Voltage in Volts
system.cpu_clk_domain.clock                       500                       # Clock period in ticks
system.cpu0.apic_clk_domain.clock                8000                       # Clock period in ticks
system.cpu0.workload.num_syscalls                  30                       # Number of system calls
system.cpu0.numCycles                               0                       # number of cpu cycles simulated
system.cpu0.numWorkItemsStarted                     0                       # number of work items this cpu started
system.cpu0.numWorkItemsCompleted                   0                       # number of work items this cpu completed
system.cpu0.committedInsts                          0                       # Number of instructions committed
system.cpu0.committedOps                            0                       # Number of ops (including micro ops) committed
system.cpu0.num_int_alu_accesses                    0                       # Number of integer alu accesses
system.cpu0.num_fp_alu_accesses                     0                       # Number of float alu accesses
system.cpu0.num_func_calls                          0                       # number of times a function call or return occured
system.cpu0.num_conditional_control_insts            0                       # number of instructions that are conditional controls
system.cpu0.num_int_insts                           0                       # number of integer instructions
system.cpu0.num_fp_insts                            0                       # number of float instructions
system.cpu0.num_int_register_reads                  0                       # number of times the integer registers were read
system.cpu0.num_int_register_writes                 0                       # number of times the integer registers were written
system.cpu0.num_fp_register_reads                   0                       # number of times the floating registers were read
system.cpu0.num_fp_register_writes                  0                       # number of times the floating registers were written
system.cpu0.num_mem_refs                            0                       # number of memory refs
system.cpu0.num_load_insts                          0                       # Number of load instructions
system.cpu0.num_store_insts                         0                       # Number of store instructions
system.cpu0.num_idle_cycles                         0                       # Number of idle cycles
system.cpu0.num_busy_cycles                         0                       # Number of busy cycles
system.cpu0.not_idle_fraction                       1                       # Percentage of non-idle cycles
system.cpu0.idle_fraction                           0                       # Percentage of idle cycles
system.cpu0.op_class::No_OpClass                    0                       # Class of executed instruction
system.cpu0.op_class::IntAlu                        0                       # Class of executed instruction
system.cpu0.op_class::IntMult                       0                       # Class of executed instruction
system.cpu0.op_class::IntDiv                        0                       # Class of executed instruction
system.cpu0.op_class::FloatAdd                      0                       # Class of executed instruction
system.cpu0.op_class::FloatCmp                      0                       # Class of executed instruction
system.cpu0.op_class::FloatCvt                      0                       # Class of executed instruction
system.cpu0.op_class::FloatMult                     0                       # Class of executed instruction
system.cpu0.op_class::FloatDiv                      0                       # Class of executed instruction
system.cpu0.op_class::FloatSqrt                     0                       # Class of executed instruction
system.cpu0.op_class::SimdAdd                       0                       # Class of executed instruction
system.cpu0.op_class::SimdAddAcc                    0                       # Class of executed instruction
system.cpu0.op_class::SimdAlu                       0                       # Class of executed instruction
system.cpu0.op_class::SimdCmp                       0                       # Class of executed instruction
system.cpu0.op_class::SimdCvt                       0                       # Class of executed instruction
system.cpu0.op_class::SimdMisc                      0                       # Class of executed instruction
system.cpu0.op_class::SimdMult                      0                       # Class of executed instruction
system.cpu0.op_class::SimdMultAcc                   0                       # Class of executed instruction
system.cpu0.op_class::SimdShift                     0                       # Class of executed instruction
system.cpu0.op_class::SimdShiftAcc                  0                       # Class of executed instruction
system.cpu0.op_class::SimdSqrt                      0                       # Class of executed instruction
system.cpu0.op_class::SimdFloatAdd                  0                       # Class of executed instruction
system.cpu0.op_class::SimdFloatAlu                  0                       # Class of executed instruction
system.cpu0.op_class::SimdFloatCmp                  0                       # Class of executed instruction
system.cpu0.op_class::SimdFloatCvt                  0                       # Class of executed instruction
system.cpu0.op_class::SimdFloatDiv                  0                       # Class of executed instruction
system.cpu0.op_class::SimdFloatMisc                 0                       # Class of executed instruction
system.cpu0.op_class::SimdFloatMult                 0                       # Class of executed instruction
system.cpu0.op_class::SimdFloatMultAcc              0                       # Class of executed instruction
system.cpu0.op_class::SimdFloatSqrt                 0                       # Class of executed instruction
system.cpu0.op_class::MemRead                       0                       # Class of executed instruction
system.cpu0.op_class::MemWrite                      0                       # Class of executed instruction
system.cpu0.op_class::IprAccess                     0                       # Class of executed instruction
system.cpu0.op_class::InstPrefetch                  0                       # Class of executed instruction
system.cpu0.op_class::total                         0                       # Class of executed instruction
system.cpu1.apic_clk_domain.clock                8000                       # Clock period in ticks
system.cpu1.numCycles                               0                       # number of cpu cycles simulated
system.cpu1.numWorkItemsStarted                     0                       # number of work items this cpu started
system.cpu1.numWorkItemsCompleted                   0                       # number of work items this cpu completed
system.cpu1.committedInsts                          0                       # Number of instructions committed
system.cpu1.committedOps                            0                       # Number of ops (including micro ops) committed
system.cpu1.num_int_alu_accesses                    0                       # Number of integer alu accesses
system.cpu1.num_fp_alu_accesses                     0                       # Number of float alu accesses
system.cpu1.num_func_calls                          0                       # number of times a function call or return occured
system.cpu1.num_conditional_control_insts            0                       # number of instructions that are conditional controls
system.cpu1.num_int_insts                           0                       # number of integer instructions
system.cpu1.num_fp_insts                            0                       # number of float instructions
system.cpu1.num_int_register_reads                  0                       # number of times the integer registers were read
system.cpu1.num_int_register_writes                 0                       # number of times the integer registers were written
system.cpu1.num_fp_register_reads                   0                       # number of times the floating registers were read
system.cpu1.num_fp_register_writes                  0                       # number of times the floating registers were written
system.cpu1.num_mem_refs                            0                       # number of memory refs
system.cpu1.num_load_insts                          0                       # Number of load instructions
system.cpu1.num_store_insts                         0                       # Number of store instructions
system.cpu1.num_idle_cycles                         0                       # Number of idle cycles
system.cpu1.num_busy_cycles                         0                       # Number of busy cycles
system.cpu1.not_idle_fraction                       0                       # Percentage of non-idle cycles
system.cpu1.idle_fraction                           1                       # Percentage of idle cycles
system.cpu1.op_class::No_OpClass                    0                       # Class of executed instruction
system.cpu1.op_class::IntAlu                        0                       # Class of executed instruction
system.cpu1.op_class::IntMult                       0                       # Class of executed instruction
system.cpu1.op_class::IntDiv                        0                       # Class of executed instruction
system.cpu1.op_class::FloatAdd                      0                       # Class of executed instruction
system.cpu1.op_class::FloatCmp                      0                       # Class of executed instruction
system.cpu1.op_class::FloatCvt                      0                       # Class of executed instruction
system.cpu1.op_class::FloatMult                     0                       # Class of executed instruction
system.cpu1.op_class::FloatDiv                      0                       # Class of executed instruction
system.cpu1.op_class::FloatSqrt                     0                       # Class of executed instruction
system.cpu1.op_class::SimdAdd                       0                       # Class of executed instruction
system.cpu1.op_class::SimdAddAcc                    0                       # Class of executed instruction
system.cpu1.op_class::SimdAlu                       0                       # Class of executed instruction
system.cpu1.op_class::SimdCmp                       0                       # Class of executed instruction
system.cpu1.op_class::SimdCvt                       0                       # Class of executed instruction
system.cpu1.op_class::SimdMisc                      0                       # Class of executed instruction
system.cpu1.op_class::SimdMult                      0                       # Class of executed instruction
system.cpu1.op_class::SimdMultAcc                   0                       # Class of executed instruction
system.cpu1.op_class::SimdShift                     0                       # Class of executed instruction
system.cpu1.op_class::SimdShiftAcc                  0                       # Class of executed instruction
system.cpu1.op_class::SimdSqrt                      0                       # Class of executed instruction
system.cpu1.op_class::SimdFloatAdd                  0                       # Class of executed instruction
system.cpu1.op_class::SimdFloatAlu                  0                       # Class of executed instruction
system.cpu1.op_class::SimdFloatCmp                  0                       # Class of executed instruction
system.cpu1.op_class::SimdFloatCvt                  0                       # Class of executed instruction
system.cpu1.op_class::SimdFloatDiv                  0                       # Class of executed instruction
system.cpu1.op_class::SimdFloatMisc                 0                       # Class of executed instruction
system.cpu1.op_class::SimdFloatMult                 0                       # Class of executed instruction
system.cpu1.op_class::SimdFloatMultAcc              0                       # Class of executed instruction
system.cpu1.op_class::SimdFloatSqrt                 0                       # Class of executed instruction
system.cpu1.op_class::MemRead                       0                       # Class of executed instruction
system.cpu1.op_class::MemWrite                      0                       # Class of executed instruction
system.cpu1.op_class::IprAccess                     0                       # Class of executed instruction
system.cpu1.op_class::InstPrefetch                  0                       # Class of executed instruction
system.cpu1.op_class::total                         0                       # Class of executed instruction
system.gpu.clk_domain.voltage_domain.voltage            1                       # Voltage in Volts
system.gpu.clk_domain.clock                      1429                       # Clock period in ticks
system.gpu.dram_wrapper.clk_domain.clock          541                       # Clock period in ticks
system.gpu.icnt_wrapper.clk_domain.clock         2858                       # Clock period in ticks
system.ruby.delayHist::bucket_size                128                       # delay histogram for all message
system.ruby.delayHist::max_bucket                1279                       # delay histogram for all message
system.ruby.delayHist::samples               15366358                       # delay histogram for all message
system.ruby.delayHist::mean                  6.528945                       # delay histogram for all message
system.ruby.delayHist::stdev                22.967404                       # delay histogram for all message
system.ruby.delayHist                    |    15243300     99.20%     99.20% |       99294      0.65%     99.85% |       20560      0.13%     99.98% |        2909      0.02%    100.00% |         266      0.00%    100.00% |          27      0.00%    100.00% |           2      0.00%    100.00% |           0      0.00%    100.00% |           0      0.00%    100.00% |           0      0.00%    100.00% # delay histogram for all message
system.ruby.delayHist::total                 15366358                       # delay histogram for all message
system.ruby.outstanding_req_hist::bucket_size           16                      
system.ruby.outstanding_req_hist::max_bucket          159                      
system.ruby.outstanding_req_hist::samples     88811391                      
system.ruby.outstanding_req_hist::mean       1.953713                      
system.ruby.outstanding_req_hist::gmean      1.076965                      
system.ruby.outstanding_req_hist::stdev      7.550307                      
system.ruby.outstanding_req_hist         |    87341231     98.34%     98.34% |      252401      0.28%     98.63% |      144971      0.16%     98.79% |       94038      0.11%     98.90% |      856481      0.96%     99.86% |       32717      0.04%     99.90% |       89552      0.10%    100.00% |           0      0.00%    100.00% |           0      0.00%    100.00% |           0      0.00%    100.00%
system.ruby.outstanding_req_hist::total      88811391                      
system.ruby.latency_hist::bucket_size            4096                      
system.ruby.latency_hist::max_bucket            40959                      
system.ruby.latency_hist::samples            88811391                      
system.ruby.latency_hist::mean              75.689485                      
system.ruby.latency_hist::gmean              1.190242                      
system.ruby.latency_hist::stdev            822.427581                      
system.ruby.latency_hist                 |    88199394     99.31%     99.31% |      429788      0.48%     99.79% |       59149      0.07%     99.86% |       52744      0.06%     99.92% |       43814      0.05%     99.97% |       22667      0.03%    100.00% |        3704      0.00%    100.00% |         131      0.00%    100.00% |           0      0.00%    100.00% |           0      0.00%    100.00%
system.ruby.latency_hist::total              88811391                      
system.ruby.hit_latency_hist::bucket_size            1                      
system.ruby.hit_latency_hist::max_bucket            9                      
system.ruby.hit_latency_hist::samples        86637049                      
system.ruby.hit_latency_hist::mean           1.000002                      
system.ruby.hit_latency_hist::gmean          1.000001                      
system.ruby.hit_latency_hist::stdev          0.002349                      
system.ruby.hit_latency_hist             |           0      0.00%      0.00% |    86636959    100.00%    100.00% |          34      0.00%    100.00% |          35      0.00%    100.00% |          10      0.00%    100.00% |           8      0.00%    100.00% |           2      0.00%    100.00% |           1      0.00%    100.00% |           0      0.00%    100.00% |           0      0.00%    100.00%
system.ruby.hit_latency_hist::total          86637049                      
system.ruby.miss_latency_hist::bucket_size         4096                      
system.ruby.miss_latency_hist::max_bucket        40959                      
system.ruby.miss_latency_hist::samples        2174342                      
system.ruby.miss_latency_hist::mean       3051.705414                      
system.ruby.miss_latency_hist::gmean      1228.328344                      
system.ruby.miss_latency_hist::stdev      4306.763802                      
system.ruby.miss_latency_hist            |     1562345     71.85%     71.85% |      429788     19.77%     91.62% |       59149      2.72%     94.34% |       52744      2.43%     96.77% |       43814      2.02%     98.78% |       22667      1.04%     99.82% |        3704      0.17%     99.99% |         131      0.01%    100.00% |           0      0.00%    100.00% |           0      0.00%    100.00%
system.ruby.miss_latency_hist::total          2174342                      
system.gpu.shader_mmu.numPagefaults                 0                       # Number of Pagefaults
system.gpu.shader_mmu.numPagewalks             174420                       # Number of Pagewalks
system.gpu.shader_mmu.totalRequests            174420                       # Total number of requests
system.gpu.shader_mmu.l2hits                        0                       # Hits in the shared L2
system.gpu.shader_mmu.prefetchHits                  0                       # Number of prefetch hits
system.gpu.shader_mmu.numPrefetches                 0                       # Number of prefetchs
system.gpu.shader_mmu.prefetchFaults                0                       # Number of faults caused by prefetches
system.gpu.shader_mmu.pagefaultLatency::samples            0                       # Latency to complete the pagefault
system.gpu.shader_mmu.pagefaultLatency::mean          nan                       # Latency to complete the pagefault
system.gpu.shader_mmu.pagefaultLatency::gmean          nan                       # Latency to complete the pagefault
system.gpu.shader_mmu.pagefaultLatency::stdev          nan                       # Latency to complete the pagefault
system.gpu.shader_mmu.pagefaultLatency::0            0                       # Latency to complete the pagefault
system.gpu.shader_mmu.pagefaultLatency::1            0                       # Latency to complete the pagefault
system.gpu.shader_mmu.pagefaultLatency::2            0                       # Latency to complete the pagefault
system.gpu.shader_mmu.pagefaultLatency::3            0                       # Latency to complete the pagefault
system.gpu.shader_mmu.pagefaultLatency::4            0                       # Latency to complete the pagefault
system.gpu.shader_mmu.pagefaultLatency::5            0                       # Latency to complete the pagefault
system.gpu.shader_mmu.pagefaultLatency::6            0                       # Latency to complete the pagefault
system.gpu.shader_mmu.pagefaultLatency::7            0                       # Latency to complete the pagefault
system.gpu.shader_mmu.pagefaultLatency::8            0                       # Latency to complete the pagefault
system.gpu.shader_mmu.pagefaultLatency::9            0                       # Latency to complete the pagefault
system.gpu.shader_mmu.pagefaultLatency::10            0                       # Latency to complete the pagefault
system.gpu.shader_mmu.pagefaultLatency::11            0                       # Latency to complete the pagefault
system.gpu.shader_mmu.pagefaultLatency::12            0                       # Latency to complete the pagefault
system.gpu.shader_mmu.pagefaultLatency::13            0                       # Latency to complete the pagefault
system.gpu.shader_mmu.pagefaultLatency::14            0                       # Latency to complete the pagefault
system.gpu.shader_mmu.pagefaultLatency::15            0                       # Latency to complete the pagefault
system.gpu.shader_mmu.pagefaultLatency::16            0                       # Latency to complete the pagefault
system.gpu.shader_mmu.pagefaultLatency::17            0                       # Latency to complete the pagefault
system.gpu.shader_mmu.pagefaultLatency::18            0                       # Latency to complete the pagefault
system.gpu.shader_mmu.pagefaultLatency::19            0                       # Latency to complete the pagefault
system.gpu.shader_mmu.pagefaultLatency::20            0                       # Latency to complete the pagefault
system.gpu.shader_mmu.pagefaultLatency::21            0                       # Latency to complete the pagefault
system.gpu.shader_mmu.pagefaultLatency::22            0                       # Latency to complete the pagefault
system.gpu.shader_mmu.pagefaultLatency::23            0                       # Latency to complete the pagefault
system.gpu.shader_mmu.pagefaultLatency::24            0                       # Latency to complete the pagefault
system.gpu.shader_mmu.pagefaultLatency::25            0                       # Latency to complete the pagefault
system.gpu.shader_mmu.pagefaultLatency::26            0                       # Latency to complete the pagefault
system.gpu.shader_mmu.pagefaultLatency::27            0                       # Latency to complete the pagefault
system.gpu.shader_mmu.pagefaultLatency::28            0                       # Latency to complete the pagefault
system.gpu.shader_mmu.pagefaultLatency::29            0                       # Latency to complete the pagefault
system.gpu.shader_mmu.pagefaultLatency::30            0                       # Latency to complete the pagefault
system.gpu.shader_mmu.pagefaultLatency::31            0                       # Latency to complete the pagefault
system.gpu.shader_mmu.pagefaultLatency::total            0                       # Latency to complete the pagefault
system.gpu.shader_mmu.concurrentWalks::samples       174420                       # Number of outstanding walks
system.gpu.shader_mmu.concurrentWalks::mean            0                       # Number of outstanding walks
system.gpu.shader_mmu.concurrentWalks::gmean            0                       # Number of outstanding walks
system.gpu.shader_mmu.concurrentWalks::stdev            0                       # Number of outstanding walks
system.gpu.shader_mmu.concurrentWalks::0       174420    100.00%    100.00% # Number of outstanding walks
system.gpu.shader_mmu.concurrentWalks::1            0      0.00%    100.00% # Number of outstanding walks
system.gpu.shader_mmu.concurrentWalks::2            0      0.00%    100.00% # Number of outstanding walks
system.gpu.shader_mmu.concurrentWalks::3            0      0.00%    100.00% # Number of outstanding walks
system.gpu.shader_mmu.concurrentWalks::4            0      0.00%    100.00% # Number of outstanding walks
system.gpu.shader_mmu.concurrentWalks::5            0      0.00%    100.00% # Number of outstanding walks
system.gpu.shader_mmu.concurrentWalks::6            0      0.00%    100.00% # Number of outstanding walks
system.gpu.shader_mmu.concurrentWalks::7            0      0.00%    100.00% # Number of outstanding walks
system.gpu.shader_mmu.concurrentWalks::8            0      0.00%    100.00% # Number of outstanding walks
system.gpu.shader_mmu.concurrentWalks::9            0      0.00%    100.00% # Number of outstanding walks
system.gpu.shader_mmu.concurrentWalks::10            0      0.00%    100.00% # Number of outstanding walks
system.gpu.shader_mmu.concurrentWalks::11            0      0.00%    100.00% # Number of outstanding walks
system.gpu.shader_mmu.concurrentWalks::12            0      0.00%    100.00% # Number of outstanding walks
system.gpu.shader_mmu.concurrentWalks::13            0      0.00%    100.00% # Number of outstanding walks
system.gpu.shader_mmu.concurrentWalks::14            0      0.00%    100.00% # Number of outstanding walks
system.gpu.shader_mmu.concurrentWalks::15            0      0.00%    100.00% # Number of outstanding walks
system.gpu.shader_mmu.concurrentWalks::total       174420                       # Number of outstanding walks
system.gpu.shader_mmu.pagewalkLatency::samples       174420                       # Latency to complete the pagewalk
system.gpu.shader_mmu.pagewalkLatency::mean            0                       # Latency to complete the pagewalk
system.gpu.shader_mmu.pagewalkLatency::gmean            0                       # Latency to complete the pagewalk
system.gpu.shader_mmu.pagewalkLatency::stdev            0                       # Latency to complete the pagewalk
system.gpu.shader_mmu.pagewalkLatency::0       174420    100.00%    100.00% # Latency to complete the pagewalk
system.gpu.shader_mmu.pagewalkLatency::1            0      0.00%    100.00% # Latency to complete the pagewalk
system.gpu.shader_mmu.pagewalkLatency::2            0      0.00%    100.00% # Latency to complete the pagewalk
system.gpu.shader_mmu.pagewalkLatency::3            0      0.00%    100.00% # Latency to complete the pagewalk
system.gpu.shader_mmu.pagewalkLatency::4            0      0.00%    100.00% # Latency to complete the pagewalk
system.gpu.shader_mmu.pagewalkLatency::5            0      0.00%    100.00% # Latency to complete the pagewalk
system.gpu.shader_mmu.pagewalkLatency::6            0      0.00%    100.00% # Latency to complete the pagewalk
system.gpu.shader_mmu.pagewalkLatency::7            0      0.00%    100.00% # Latency to complete the pagewalk
system.gpu.shader_mmu.pagewalkLatency::8            0      0.00%    100.00% # Latency to complete the pagewalk
system.gpu.shader_mmu.pagewalkLatency::9            0      0.00%    100.00% # Latency to complete the pagewalk
system.gpu.shader_mmu.pagewalkLatency::10            0      0.00%    100.00% # Latency to complete the pagewalk
system.gpu.shader_mmu.pagewalkLatency::11            0      0.00%    100.00% # Latency to complete the pagewalk
system.gpu.shader_mmu.pagewalkLatency::12            0      0.00%    100.00% # Latency to complete the pagewalk
system.gpu.shader_mmu.pagewalkLatency::13            0      0.00%    100.00% # Latency to complete the pagewalk
system.gpu.shader_mmu.pagewalkLatency::14            0      0.00%    100.00% # Latency to complete the pagewalk
system.gpu.shader_mmu.pagewalkLatency::15            0      0.00%    100.00% # Latency to complete the pagewalk
system.gpu.shader_mmu.pagewalkLatency::16            0      0.00%    100.00% # Latency to complete the pagewalk
system.gpu.shader_mmu.pagewalkLatency::17            0      0.00%    100.00% # Latency to complete the pagewalk
system.gpu.shader_mmu.pagewalkLatency::18            0      0.00%    100.00% # Latency to complete the pagewalk
system.gpu.shader_mmu.pagewalkLatency::19            0      0.00%    100.00% # Latency to complete the pagewalk
system.gpu.shader_mmu.pagewalkLatency::20            0      0.00%    100.00% # Latency to complete the pagewalk
system.gpu.shader_mmu.pagewalkLatency::21            0      0.00%    100.00% # Latency to complete the pagewalk
system.gpu.shader_mmu.pagewalkLatency::22            0      0.00%    100.00% # Latency to complete the pagewalk
system.gpu.shader_mmu.pagewalkLatency::23            0      0.00%    100.00% # Latency to complete the pagewalk
system.gpu.shader_mmu.pagewalkLatency::24            0      0.00%    100.00% # Latency to complete the pagewalk
system.gpu.shader_mmu.pagewalkLatency::25            0      0.00%    100.00% # Latency to complete the pagewalk
system.gpu.shader_mmu.pagewalkLatency::26            0      0.00%    100.00% # Latency to complete the pagewalk
system.gpu.shader_mmu.pagewalkLatency::27            0      0.00%    100.00% # Latency to complete the pagewalk
system.gpu.shader_mmu.pagewalkLatency::28            0      0.00%    100.00% # Latency to complete the pagewalk
system.gpu.shader_mmu.pagewalkLatency::29            0      0.00%    100.00% # Latency to complete the pagewalk
system.gpu.shader_mmu.pagewalkLatency::30            0      0.00%    100.00% # Latency to complete the pagewalk
system.gpu.shader_mmu.pagewalkLatency::31            0      0.00%    100.00% # Latency to complete the pagewalk
system.gpu.shader_mmu.pagewalkLatency::total       174420                       # Latency to complete the pagewalk
system.gpu.kernels_started                        255                       # Number of kernels started
system.gpu.kernels_completed                      255                       # Number of kernels completed
system.gpu.ce.device_dtb.hits                       0                       # Number of hits in this TLB
system.gpu.ce.device_dtb.misses                     0                       # Number of misses in this TLB
system.gpu.ce.device_dtb.hitRate                  nan                       # Hit rate for this TLB
system.gpu.ce.host_dtb.hits                    219183                       # Number of hits in this TLB
system.gpu.ce.host_dtb.misses                  174420                       # Number of misses in this TLB
system.gpu.ce.host_dtb.hitRate               0.556863                       # Hit rate for this TLB
system.gpu.ce.numOperations                         3                       # Number of copy/memset operations
system.gpu.ce.opBytesRead                    50380812                       # Number of copy bytes read
system.gpu.ce.opBytesWritten                 50380812                       # Number of copy/memset bytes written
system.gpu.ce.opTimeTicks                 15586704212                       # Total time spent in copy/memset operations
system.gpu.shader_cores0.itb.hits                   0                       # Number of hits in this TLB
system.gpu.shader_cores0.itb.misses                 0                       # Number of misses in this TLB
system.gpu.shader_cores0.itb.hitRate              nan                       # Hit rate for this TLB
system.gpu.shader_cores0.local_loads                0                       # Number of loads from local space
system.gpu.shader_cores0.local_stores               0                       # Number of stores to local space
system.gpu.shader_cores0.shared_loads         5260800                       # Number of loads from shared space
system.gpu.shader_cores0.shared_stores        2239950                       # Number of stores to shared space
system.gpu.shader_cores0.param_kernel_loads      1347904                       # Number of loads from kernel parameter space
system.gpu.shader_cores0.param_local_loads            0                       # Number of loads from local parameter space
system.gpu.shader_cores0.param_local_stores            0                       # Number of stores to local parameter space
system.gpu.shader_cores0.const_loads                0                       # Number of loads from constant space
system.gpu.shader_cores0.tex_loads                  0                       # Number of loads from texture space
system.gpu.shader_cores0.global_loads         1187790                       # Number of loads from global space
system.gpu.shader_cores0.global_stores        1052160                       # Number of stores to global space
system.gpu.shader_cores0.surf_loads                 0                       # Number of loads from surface space
system.gpu.shader_cores0.generic_loads              0                       # Number of loads from generic spaces (global, shared, local)
system.gpu.shader_cores0.generic_stores             0                       # Number of stores to generic spaces (global, shared, local)
system.gpu.shader_cores0.inst_cache_requests           36                       # Number of instruction cache requests sent
system.gpu.shader_cores0.inst_cache_retries            0                       # Number of instruction cache retries
system.gpu.shader_cores0.inst_counts::0             0                       # Inst counts: 1: ALU, 2: MAD, 3: CTRL, 4: SFU, 5: MEM, 6: TEX, 7: NOP
system.gpu.shader_cores0.inst_counts::1      35686778                       # Inst counts: 1: ALU, 2: MAD, 3: CTRL, 4: SFU, 5: MEM, 6: TEX, 7: NOP
system.gpu.shader_cores0.inst_counts::2             0                       # Inst counts: 1: ALU, 2: MAD, 3: CTRL, 4: SFU, 5: MEM, 6: TEX, 7: NOP
system.gpu.shader_cores0.inst_counts::3       6308850                       # Inst counts: 1: ALU, 2: MAD, 3: CTRL, 4: SFU, 5: MEM, 6: TEX, 7: NOP
system.gpu.shader_cores0.inst_counts::4             0                       # Inst counts: 1: ALU, 2: MAD, 3: CTRL, 4: SFU, 5: MEM, 6: TEX, 7: NOP
system.gpu.shader_cores0.inst_counts::5      11088604                       # Inst counts: 1: ALU, 2: MAD, 3: CTRL, 4: SFU, 5: MEM, 6: TEX, 7: NOP
system.gpu.shader_cores0.inst_counts::6             0                       # Inst counts: 1: ALU, 2: MAD, 3: CTRL, 4: SFU, 5: MEM, 6: TEX, 7: NOP
system.gpu.shader_cores0.inst_counts::7             0                       # Inst counts: 1: ALU, 2: MAD, 3: CTRL, 4: SFU, 5: MEM, 6: TEX, 7: NOP
system.gpu.shader_cores0.activeCycles        12819148                       # Number of cycles this shader was executing a CTA
[...]
system.ruby.L1Cache_Controller.I.Load::total         4076                      
system.ruby.L1Cache_Controller.I.Ifetch  |         765    100.00%    100.00% |           0      0.00%    100.00% |           0      0.00%    100.00% |           0      0.00%    100.00% |           0      0.00%    100.00% |           0      0.00%    100.00% |           0      0.00%    100.00% |           0      0.00%    100.00%
system.ruby.L1Cache_Controller.I.Ifetch::total          765                      
system.ruby.L1Cache_Controller.I.Store   |          23    100.00%    100.00% |           0      0.00%    100.00% |           0      0.00%    100.00% |           0      0.00%    100.00% |           0      0.00%    100.00% |           0      0.00%    100.00% |           0      0.00%    100.00% |           0      0.00%    100.00%
system.ruby.L1Cache_Controller.I.Store::total           23                      
system.ruby.L1Cache_Controller.I.L1_Replacement |         373      0.06%      0.06% |           0      0.00%      0.06% |      168709     24.94%     25.00% |      169172     25.01%     50.01% |      168852     24.96%     74.97% |      169282     25.03%    100.00% |           0      0.00%    100.00% |           9      0.00%    100.00%
system.ruby.L1Cache_Controller.I.L1_Replacement::total       676397                      
system.ruby.L1Cache_Controller.S.Load    |           0      0.00%      0.00% |           0      0.00%      0.00% |           2     50.00%     50.00% |           1     25.00%     75.00% |           0      0.00%     75.00% |           1     25.00%    100.00% |           0      0.00%    100.00% |           0      0.00%    100.00%
system.ruby.L1Cache_Controller.S.Load::total            4                      
system.ruby.L1Cache_Controller.S.Ifetch  |    66416351    100.00%    100.00% |           0      0.00%    100.00% |           0      0.00%    100.00% |           0      0.00%    100.00% |           0      0.00%    100.00% |           0      0.00%    100.00% |           0      0.00%    100.00% |           0      0.00%    100.00%
system.ruby.L1Cache_Controller.S.Ifetch::total     66416351                      
system.ruby.L1Cache_Controller.S.Inv     |         989     15.07%     15.07% |           0      0.00%     15.07% |        1411     21.51%     36.58% |        1352     20.61%     57.19% |        1438     21.92%     79.10% |        1371     20.90%    100.00% |           0      0.00%    100.00% |           0      0.00%    100.00%
system.ruby.L1Cache_Controller.S.Inv::total         6561                      
system.ruby.L1Cache_Controller.S.L1_Replacement |         153     10.88%     10.88% |           0      0.00%     10.88% |         247     17.57%     28.45% |         239     17.00%     45.45% |         240     17.07%     62.52% |         223     15.86%     78.38% |           0      0.00%     78.38% |         304     21.62%    100.00%
system.ruby.L1Cache_Controller.S.L1_Replacement::total         1406                      
system.ruby.L1Cache_Controller.E.Load    |    12638844     99.99%     99.99% |           0      0.00%     99.99% |         236      0.00%     99.99% |         247      0.00%    100.00% |         246      0.00%    100.00% |         252      0.00%    100.00% |           0      0.00%    100.00% |           0      0.00%    100.00%
system.ruby.L1Cache_Controller.E.Load::total     12639825                      
system.ruby.L1Cache_Controller.E.Store   |         162    100.00%    100.00% |           0      0.00%    100.00% |           0      0.00%    100.00% |           0      0.00%    100.00% |           0      0.00%    100.00% |           0      0.00%    100.00% |           0      0.00%    100.00% |           0      0.00%    100.00%
system.ruby.L1Cache_Controller.E.Store::total          162                      
system.ruby.L1Cache_Controller.E.Inv     |        3621      0.78%      0.78% |           0      0.00%      0.78% |      114762     24.68%     25.46% |      115884     24.92%     50.38% |      115070     24.75%     75.12% |      115676     24.88%    100.00% |           0      0.00%    100.00% |           0      0.00%    100.00%
system.ruby.L1Cache_Controller.E.Inv::total       465013                      
system.ruby.L1Cache_Controller.E.L1_Replacement |       41255      6.31%      6.31% |           0      0.00%      6.31% |       55896      8.55%     14.86% |       54469      8.33%     23.19% |       55406      8.47%     31.66% |       53476      8.18%     39.84% |           0      0.00%     39.84% |      393299     60.16%    100.00%
system.ruby.L1Cache_Controller.E.L1_Replacement::total       653801                      
system.ruby.L1Cache_Controller.E.Fwd_GETX |           0      0.00%      0.00% |           0      0.00%      0.00% |           1     50.00%     50.00% |           0      0.00%     50.00% |           0      0.00%     50.00% |           1     50.00%    100.00% |           0      0.00%    100.00% |           0      0.00%    100.00%
system.ruby.L1Cache_Controller.E.Fwd_GETX::total            2                      
system.ruby.L1Cache_Controller.E.Fwd_GETS |           0      0.00%      0.00% |           0      0.00%      0.00% |         325     25.45%     25.45% |         321     25.14%     50.59% |         333     26.08%     76.66% |         298     23.34%    100.00% |           0      0.00%    100.00% |           0      0.00%    100.00%
system.ruby.L1Cache_Controller.E.Fwd_GETS::total         1277                      
system.ruby.L1Cache_Controller.M.Load    |      826917    100.00%    100.00% |           0      0.00%    100.00% |           5      0.00%    100.00% |           3      0.00%    100.00% |           9      0.00%    100.00% |           3      0.00%    100.00% |           0      0.00%    100.00% |           0      0.00%    100.00%
system.ruby.L1Cache_Controller.M.Load::total       826937                      
system.ruby.L1Cache_Controller.M.Store   |     6753770    100.00%    100.00% |           0      0.00%    100.00% |           0      0.00%    100.00% |           0      0.00%    100.00% |           0      0.00%    100.00% |           0      0.00%    100.00% |           0      0.00%    100.00% |           0      0.00%    100.00%
system.ruby.L1Cache_Controller.M.Store::total      6753770                      
system.ruby.L1Cache_Controller.M.Inv     |         333      0.16%      0.16% |           0      0.00%      0.16% |       53055     25.08%     25.24% |       52485     24.81%     50.05% |       52883     25.00%     75.04% |       52782     24.95%     99.99% |           0      0.00%     99.99% |          11      0.01%    100.00%
system.ruby.L1Cache_Controller.M.Inv::total       211549                      
system.ruby.L1Cache_Controller.M.L1_Replacement |      268215     32.11%     32.11% |           0      0.00%     32.11% |       43334      5.19%     37.30% |       43782      5.24%     42.54% |       43532      5.21%     47.75% |       42818      5.13%     52.88% |           0      0.00%     52.88% |      393586     47.12%    100.00%
system.ruby.L1Cache_Controller.M.L1_Replacement::total       835267                      
system.ruby.L1Cache_Controller.M.Fwd_GETX |           0      0.00%      0.00% |           0      0.00%      0.00% |           0      0.00%      0.00% |           0      0.00%      0.00% |           0      0.00%      0.00% |           0      0.00%      0.00% |           0      0.00%      0.00% |           6    100.00%    100.00%
system.ruby.L1Cache_Controller.M.Fwd_GETX::total            6                      
system.ruby.L1Cache_Controller.M.Fwd_GETS |           0      0.00%      0.00% |           0      0.00%      0.00% |         118     33.43%     33.43% |          61     17.28%     50.71% |          77     21.81%     72.52% |          97     27.48%    100.00% |           0      0.00%    100.00% |           0      0.00%    100.00%
system.ruby.L1Cache_Controller.M.Fwd_GETS::total          353                      
system.ruby.L1Cache_Controller.IS.Inv    |           0      0.00%      0.00% |           0      0.00%      0.00% |          37     26.06%     26.06% |          38     26.76%     52.82% |          33     23.24%     76.06% |          34     23.94%    100.00% |           0      0.00%    100.00% |           0      0.00%    100.00%
system.ruby.L1Cache_Controller.IS.Inv::total          142                      
system.ruby.L1Cache_Controller.IS.L1_Replacement |           0      0.00%      0.00% |           0      0.00%      0.00% |      590961      7.72%      7.72% |      580491      7.58%     15.30% |      584959      7.64%     22.94% |      584039      7.63%     30.57% |           0      0.00%     30.57% |     5316313     69.43%    100.00%
system.ruby.L1Cache_Controller.IS.L1_Replacement::total      7656763                      
system.ruby.L1Cache_Controller.IS.Data_Exclusive |       45242      4.04%      4.04% |           0      0.00%      4.04% |      171073     15.26%     19.30% |      170731     15.23%     34.53% |      170879     15.25%     49.78% |      169543     15.13%     64.91% |           0      0.00%     64.91% |      393299     35.09%    100.00%
system.ruby.L1Cache_Controller.IS.Data_Exclusive::total      1120767                      
system.ruby.L1Cache_Controller.IS.DataS_fromL1 |           0      0.00%      0.00% |           0      0.00%      0.00% |         341     20.88%     20.88% |         327     20.02%     40.91% |         343     21.00%     61.91% |         318     19.47%     81.38% |           0      0.00%     81.38% |         304     18.62%    100.00%
system.ruby.L1Cache_Controller.IS.DataS_fromL1::total         1633                      
system.ruby.L1Cache_Controller.IS.Data_all_Acks |        1203     25.20%     25.20% |           0      0.00%     25.20% |         878     18.40%     43.60% |         882     18.48%     62.08% |         929     19.46%     81.54% |         881     18.46%    100.00% |           0      0.00%    100.00% |           0      0.00%    100.00%
system.ruby.L1Cache_Controller.IS.Data_all_Acks::total         4773                      
system.ruby.L1Cache_Controller.IM.Inv    |           0      0.00%      0.00% |           0      0.00%      0.00% |           0      0.00%      0.00% |           0      0.00%      0.00% |           0      0.00%      0.00% |           1    100.00%    100.00% |           0      0.00%    100.00% |           0      0.00%    100.00%
system.ruby.L1Cache_Controller.IM.Inv::total            1                      
system.ruby.L1Cache_Controller.IM.L1_Replacement |           0      0.00%      0.00% |           0      0.00%      0.00% |      771227      9.15%      9.15% |      746245      8.85%     18.00% |      764338      9.07%     27.07% |      766750      9.10%     36.17% |           0      0.00%     36.17% |     5380004     63.83%    100.00%
system.ruby.L1Cache_Controller.IM.L1_Replacement::total      8428564                      
system.ruby.L1Cache_Controller.IM.Data_all_Acks |      268400     25.63%     25.63% |           0      0.00%     25.63% |       96507      9.22%     34.85% |       96328      9.20%     44.05% |       96492      9.22%     53.27% |       95697      9.14%     62.41% |           0      0.00%     62.41% |      393603     37.59%    100.00%
system.ruby.L1Cache_Controller.IM.Data_all_Acks::total      1047027                      
system.ruby.L1Cache_Controller.IS_I.Data_all_Acks |           0      0.00%      0.00% |           0      0.00%      0.00% |          37     26.06%     26.06% |          38     26.76%     52.82% |          33     23.24%     76.06% |          34     23.94%    100.00% |           0      0.00%    100.00% |           0      0.00%    100.00%
system.ruby.L1Cache_Controller.IS_I.Data_all_Acks::total          142                      
system.ruby.L1Cache_Controller.M_I.Ifetch |           1    100.00%    100.00% |           0      0.00%    100.00% |           0      0.00%    100.00% |           0      0.00%    100.00% |           0      0.00%    100.00% |           0      0.00%    100.00% |           0      0.00%    100.00% |           0      0.00%    100.00%
system.ruby.L1Cache_Controller.M_I.Ifetch::total            1                      
system.ruby.L1Cache_Controller.M_I.Inv   |           0      0.00%      0.00% |           0      0.00%      0.00% |       23093     25.17%     25.17% |       22929     24.99%     50.16% |       22831     24.88%     75.04% |       22905     24.96%    100.00% |           0      0.00%    100.00% |           0      0.00%    100.00%
system.ruby.L1Cache_Controller.M_I.Inv::total        91758                      
system.ruby.L1Cache_Controller.M_I.Fwd_GETS |           0      0.00%      0.00% |           0      0.00%      0.00% |           1     33.33%     33.33% |           1     33.33%     66.67% |           1     33.33%    100.00% |           0      0.00%    100.00% |           0      0.00%    100.00% |           0      0.00%    100.00%
system.ruby.L1Cache_Controller.M_I.Fwd_GETS::total            3                      
system.ruby.L1Cache_Controller.M_I.WB_Ack |      309470     22.15%     22.15% |           0      0.00%     22.15% |       76136      5.45%     27.60% |       75321      5.39%     32.99% |       76106      5.45%     38.43% |       73389      5.25%     43.69% |           0      0.00%     43.69% |      786885     56.31%    100.00%
system.ruby.L1Cache_Controller.M_I.WB_Ack::total      1397307                      
system.ruby.L1Cache_Controller.SINK_WB_ACK.Load |           0      0.00%      0.00% |           0      0.00%      0.00% |           0      0.00%      0.00% |           0      0.00%      0.00% |           1    100.00%    100.00% |           0      0.00%    100.00% |           0      0.00%    100.00% |           0      0.00%    100.00%
system.ruby.L1Cache_Controller.SINK_WB_ACK.Load::total            1                      
system.ruby.L1Cache_Controller.SINK_WB_ACK.WB_Ack |           0      0.00%      0.00% |           0      0.00%      0.00% |       23094     25.17%     25.17% |       22930     24.99%     50.16% |       22832     24.88%     75.04% |       22905     24.96%    100.00% |           0      0.00%    100.00% |           0      0.00%    100.00%
system.ruby.L1Cache_Controller.SINK_WB_ACK.WB_Ack::total        91761                      
system.ruby.L2Cache_Controller.L1_GET_INSTR         1347      0.00%      0.00%
system.ruby.L2Cache_Controller.L1_GETS        1126074      0.00%      0.00%
system.ruby.L2Cache_Controller.L1_GETX        1047028      0.00%      0.00%
system.ruby.L2Cache_Controller.L1_PUTX        1397312      0.00%      0.00%
system.ruby.L2Cache_Controller.L1_PUTX_old       115563      0.00%      0.00%
system.ruby.L2Cache_Controller.L2_Replacement       786573      0.00%      0.00%
system.ruby.L2Cache_Controller.L2_Replacement_clean      1970801      0.00%      0.00%
system.ruby.L2Cache_Controller.Mem_Data       2158012      0.00%      0.00%
system.ruby.L2Cache_Controller.Mem_Ack        2156047      0.00%      0.00%
system.ruby.L2Cache_Controller.WB_Data         259044      0.00%      0.00%
system.ruby.L2Cache_Controller.WB_Data_clean        45896      0.00%      0.00%
system.ruby.L2Cache_Controller.Ack               3521      0.00%      0.00%
system.ruby.L2Cache_Controller.Ack_all         469561      0.00%      0.00%
system.ruby.L2Cache_Controller.Unblock           1633      0.00%      0.00%
system.ruby.L2Cache_Controller.Exclusive_Unblock      2167794      0.00%      0.00%
system.ruby.L2Cache_Controller.NP.L1_GET_INSTR         1208      0.00%      0.00%
system.ruby.L2Cache_Controller.NP.L1_GETS      1111855      0.00%      0.00%
system.ruby.L2Cache_Controller.NP.L1_GETX      1044949      0.00%      0.00%
system.ruby.L2Cache_Controller.NP.L1_PUTX_old        67355      0.00%      0.00%
system.ruby.L2Cache_Controller.SS.L1_GET_INSTR          128      0.00%      0.00%
system.ruby.L2Cache_Controller.SS.L1_GETS           10      0.00%      0.00%
system.ruby.L2Cache_Controller.SS.L1_PUTX            3      0.00%      0.00%
system.ruby.L2Cache_Controller.SS.L2_Replacement          355      0.00%      0.00%
system.ruby.L2Cache_Controller.SS.L2_Replacement_clean         4193      0.00%      0.00%
system.ruby.L2Cache_Controller.M.L1_GET_INSTR            1      0.00%      0.00%
system.ruby.L2Cache_Controller.M.L1_GETS        10691      0.00%      0.00%
system.ruby.L2Cache_Controller.M.L1_GETX         2070      0.00%      0.00%
system.ruby.L2Cache_Controller.M.L2_Replacement       785994      0.00%      0.00%
system.ruby.L2Cache_Controller.M.L2_Replacement_clean       597185      0.00%      0.00%
system.ruby.L2Cache_Controller.MT.L1_GETS         1633      0.00%      0.00%
system.ruby.L2Cache_Controller.MT.L1_GETX            8      0.00%      0.00%
system.ruby.L2Cache_Controller.MT.L1_PUTX      1397307      0.00%      0.00%
system.ruby.L2Cache_Controller.MT.L2_Replacement          224      0.00%      0.00%
system.ruby.L2Cache_Controller.MT.L2_Replacement_clean       768096      0.00%      0.00%
system.ruby.L2Cache_Controller.M_I.L1_GETS           46      0.00%      0.00%
system.ruby.L2Cache_Controller.M_I.L1_GETX            1      0.00%      0.00%
system.ruby.L2Cache_Controller.M_I.L1_PUTX_old        24400      0.00%      0.00%
system.ruby.L2Cache_Controller.M_I.Mem_Ack      2156047      0.00%      0.00%
system.ruby.L2Cache_Controller.MT_I.L1_PUTX_old            3      0.00%      0.00%
system.ruby.L2Cache_Controller.MT_I.WB_Data          207      0.00%      0.00%
system.ruby.L2Cache_Controller.MT_I.Ack_all           17      0.00%      0.00%
system.ruby.L2Cache_Controller.MCT_I.L1_GETS           46      0.00%      0.00%
system.ruby.L2Cache_Controller.MCT_I.L1_PUTX_old        23802      0.00%      0.00%
system.ruby.L2Cache_Controller.MCT_I.WB_Data       258483      0.00%      0.00%
system.ruby.L2Cache_Controller.MCT_I.WB_Data_clean        44617      0.00%      0.00%
system.ruby.L2Cache_Controller.MCT_I.Ack_all       464996      0.00%      0.00%
system.ruby.L2Cache_Controller.I_I.Ack           3159      0.00%      0.00%
system.ruby.L2Cache_Controller.I_I.Ack_all         4193      0.00%      0.00%
system.ruby.L2Cache_Controller.S_I.Ack            362      0.00%      0.00%
system.ruby.L2Cache_Controller.S_I.Ack_all          355      0.00%      0.00%
system.ruby.L2Cache_Controller.ISS.L1_GETS         1779      0.00%      0.00%
system.ruby.L2Cache_Controller.ISS.L1_PUTX_old            3      0.00%      0.00%
system.ruby.L2Cache_Controller.ISS.L2_Replacement_clean       361344      0.00%      0.00%
system.ruby.L2Cache_Controller.ISS.Mem_Data      1110076      0.00%      0.00%
system.ruby.L2Cache_Controller.IS.L1_GET_INSTR           10      0.00%      0.00%
system.ruby.L2Cache_Controller.IS.L2_Replacement_clean         1175      0.00%      0.00%
system.ruby.L2Cache_Controller.IS.Mem_Data         2987      0.00%      0.00%
system.ruby.L2Cache_Controller.IM.L2_Replacement_clean       227486      0.00%      0.00%
system.ruby.L2Cache_Controller.IM.Mem_Data      1044949      0.00%      0.00%
system.ruby.L2Cache_Controller.MT_MB.L1_GETS           14      0.00%      0.00%
system.ruby.L2Cache_Controller.MT_MB.L2_Replacement_clean        11321      0.00%      0.00%
system.ruby.L2Cache_Controller.MT_MB.Exclusive_Unblock      2167794      0.00%      0.00%
system.ruby.L2Cache_Controller.MT_IIB.L1_PUTX            2      0.00%      0.00%
system.ruby.L2Cache_Controller.MT_IIB.L2_Replacement_clean            1      0.00%      0.00%
system.ruby.L2Cache_Controller.MT_IIB.WB_Data          120      0.00%      0.00%
system.ruby.L2Cache_Controller.MT_IIB.WB_Data_clean           73      0.00%      0.00%
system.ruby.L2Cache_Controller.MT_IIB.Unblock         1440      0.00%      0.00%
system.ruby.L2Cache_Controller.MT_IB.WB_Data          234      0.00%      0.00%
system.ruby.L2Cache_Controller.MT_IB.WB_Data_clean         1206      0.00%      0.00%
system.ruby.L2Cache_Controller.MT_SB.Unblock          193      0.00%      0.00%

---------- End Simulation Statistics   ----------
