
---------- Begin Simulation Statistics ----------
sim_seconds                                  0.001459                       # Number of seconds simulated
sim_ticks                                  1459263000                       # Number of ticks simulated
final_tick                                 1459263000                       # Number of ticks from beginning of simulation (restored from checkpoints and never reset)
sim_freq                                 1000000000000                       # Frequency of simulated ticks
host_inst_rate                                 343485                       # Simulator instruction rate (inst/s)
host_op_rate                                   671521                       # Simulator op (including micro ops) rate (op/s)
host_tick_rate                              648413760                       # Simulator tick rate (ticks/s)
host_mem_usage                                4507976                       # Number of bytes of host memory used
host_seconds                                     2.25                       # Real time elapsed on the host
sim_insts                                      773012                       # Number of instructions simulated
sim_ops                                       1511261                       # Number of ops (including micro ops) simulated
system.voltage_domain.voltage                       1                       # Voltage in Volts
system.clk_domain.clock                          1000                       # Clock period in ticks
system.mem_ctrls.bytes_read::ruby.dir_cntrl0       103936                       # Number of bytes read from this memory
system.mem_ctrls.bytes_read::total             103936                       # Number of bytes read from this memory
system.mem_ctrls.num_reads::ruby.dir_cntrl0          812                       # Number of read requests responded to by this memory
system.mem_ctrls.num_reads::total                 812                       # Number of read requests responded to by this memory
system.mem_ctrls.bw_read::ruby.dir_cntrl0     71224995                       # Total read bandwidth from this memory (bytes/s)
system.mem_ctrls.bw_read::total              71224995                       # Total read bandwidth from this memory (bytes/s)
system.mem_ctrls.bw_total::ruby.dir_cntrl0     71224995                       # Total bandwidth to/from this memory (bytes/s)
system.mem_ctrls.bw_total::total             71224995                       # Total bandwidth to/from this memory (bytes/s)
system.mem_ctrls.readReqs                         812                       # Number of read requests accepted
system.mem_ctrls.writeReqs                          0                       # Number of write requests accepted
system.mem_ctrls.readBursts                      1624                       # Number of DRAM read bursts, including those serviced by the write queue
system.mem_ctrls.writeBursts                        0                       # Number of DRAM write bursts, including those merged in the write queue
system.mem_ctrls.bytesReadDRAM                 103936                       # Total number of bytes read from DRAM
system.mem_ctrls.bytesReadWrQ                       0                       # Total number of bytes read from write queue
system.mem_ctrls.bytesWritten                       0                       # Total number of bytes written to DRAM
system.mem_ctrls.bytesReadSys                  103936                       # Total read bytes from the system interface side
system.mem_ctrls.bytesWrittenSys                    0                       # Total written bytes from the system interface side
system.mem_ctrls.servicedByWrQ                      0                       # Number of DRAM read bursts serviced by the write queue
system.mem_ctrls.mergedWrBursts                     0                       # Number of DRAM write bursts merged with an existing one
system.mem_ctrls.neitherReadNorWriteReqs            0                       # Number of requests that are neither read nor write
system.mem_ctrls.perBankRdBursts::0                92                       # Per bank write bursts
system.mem_ctrls.perBankRdBursts::1                92                       # Per bank write bursts
system.mem_ctrls.perBankRdBursts::2               116                       # Per bank write bursts
system.mem_ctrls.perBankRdBursts::3                66                       # Per bank write bursts
system.mem_ctrls.perBankRdBursts::4                30                       # Per bank write bursts
system.mem_ctrls.perBankRdBursts::5                52                       # Per bank write bursts
system.mem_ctrls.perBankRdBursts::6               186                       # Per bank write bursts
system.mem_ctrls.perBankRdBursts::7                82                       # Per bank write bursts
system.mem_ctrls.perBankRdBursts::8               192                       # Per bank write bursts
system.mem_ctrls.perBankRdBursts::9               124                       # Per bank write bursts
system.mem_ctrls.perBankRdBursts::10              114                       # Per bank write bursts
system.mem_ctrls.perBankRdBursts::11              218                       # Per bank write bursts
system.mem_ctrls.perBankRdBursts::12              106                       # Per bank write bursts
system.mem_ctrls.perBankRdBursts::13               84                       # Per bank write bursts
system.mem_ctrls.perBankRdBursts::14               58                       # Per bank write bursts
system.mem_ctrls.perBankRdBursts::15               12                       # Per bank write bursts
system.mem_ctrls.perBankWrBursts::0                 0                       # Per bank write bursts
system.mem_ctrls.perBankWrBursts::1                 0                       # Per bank write bursts
system.mem_ctrls.perBankWrBursts::2                 0                       # Per bank write bursts
system.mem_ctrls.perBankWrBursts::3                 0                       # Per bank write bursts
system.mem_ctrls.perBankWrBursts::4                 0                       # Per bank write bursts
system.mem_ctrls.perBankWrBursts::5                 0                       # Per bank write bursts
system.mem_ctrls.perBankWrBursts::6                 0                       # Per bank write bursts
system.mem_ctrls.perBankWrBursts::7                 0                       # Per bank write bursts
system.mem_ctrls.perBankWrBursts::8                 0                       # Per bank write bursts
system.mem_ctrls.perBankWrBursts::9                 0                       # Per bank write bursts
system.mem_ctrls.perBankWrBursts::10                0                       # Per bank write bursts
system.mem_ctrls.perBankWrBursts::11                0                       # Per bank write bursts
system.mem_ctrls.perBankWrBursts::12                0                       # Per bank write bursts
system.mem_ctrls.perBankWrBursts::13                0                       # Per bank write bursts
system.mem_ctrls.perBankWrBursts::14                0                       # Per bank write bursts
system.mem_ctrls.perBankWrBursts::15                0                       # Per bank write bursts
system.mem_ctrls.numRdRetry                         0                       # Number of times read queue was full causing retry
system.mem_ctrls.numWrRetry                         0                       # Number of times write queue was full causing retry
system.mem_ctrls.totGap                    1459200000                       # Total gap between requests
system.mem_ctrls.readPktSize::0                     0                       # Read request sizes (log2)
system.mem_ctrls.readPktSize::1                     0                       # Read request sizes (log2)
system.mem_ctrls.readPktSize::2                     0                       # Read request sizes (log2)
system.mem_ctrls.readPktSize::3                     0                       # Read request sizes (log2)
system.mem_ctrls.readPktSize::4                     0                       # Read request sizes (log2)
system.mem_ctrls.readPktSize::5                     0                       # Read request sizes (log2)
system.mem_ctrls.readPktSize::6                  1624                       # Read request sizes (log2)
system.mem_ctrls.writePktSize::0                    0                       # Write request sizes (log2)
system.mem_ctrls.writePktSize::1                    0                       # Write request sizes (log2)
system.mem_ctrls.writePktSize::2                    0                       # Write request sizes (log2)
system.mem_ctrls.writePktSize::3                    0                       # Write request sizes (log2)
system.mem_ctrls.writePktSize::4                    0                       # Write request sizes (log2)
system.mem_ctrls.writePktSize::5                    0                       # Write request sizes (log2)
system.mem_ctrls.writePktSize::6                    0                       # Write request sizes (log2)
system.mem_ctrls.rdQLenPdf::0                     797                       # What read queue length does an incoming req see
system.mem_ctrls.rdQLenPdf::1                     797                       # What read queue length does an incoming req see
system.mem_ctrls.rdQLenPdf::2                       3                       # What read queue length does an incoming req see
system.mem_ctrls.rdQLenPdf::3                       3                       # What read queue length does an incoming req see
system.mem_ctrls.rdQLenPdf::4                       2                       # What read queue length does an incoming req see
system.mem_ctrls.rdQLenPdf::5                       4                       # What read queue length does an incoming req see
system.mem_ctrls.rdQLenPdf::6                       5                       # What read queue length does an incoming req see
system.mem_ctrls.rdQLenPdf::7                       5                       # What read queue length does an incoming req see
system.mem_ctrls.rdQLenPdf::8                       3                       # What read queue length does an incoming req see
system.mem_ctrls.rdQLenPdf::9                       1                       # What read queue length does an incoming req see
system.mem_ctrls.rdQLenPdf::10                      2                       # What read queue length does an incoming req see
system.mem_ctrls.rdQLenPdf::11                      2                       # What read queue length does an incoming req see
system.mem_ctrls.rdQLenPdf::12                      0                       # What read queue length does an incoming req see
system.mem_ctrls.rdQLenPdf::13                      0                       # What read queue length does an incoming req see
system.mem_ctrls.rdQLenPdf::14                      0                       # What read queue length does an incoming req see
system.mem_ctrls.rdQLenPdf::15                      0                       # What read queue length does an incoming req see
system.mem_ctrls.rdQLenPdf::16                      0                       # What read queue length does an incoming req see
system.mem_ctrls.rdQLenPdf::17                      0                       # What read queue length does an incoming req see
system.mem_ctrls.rdQLenPdf::18                      0                       # What read queue length does an incoming req see
system.mem_ctrls.rdQLenPdf::19                      0                       # What read queue length does an incoming req see
system.mem_ctrls.rdQLenPdf::20                      0                       # What read queue length does an incoming req see
system.mem_ctrls.rdQLenPdf::21                      0                       # What read queue length does an incoming req see
system.mem_ctrls.rdQLenPdf::22                      0                       # What read queue length does an incoming req see
system.mem_ctrls.rdQLenPdf::23                      0                       # What read queue length does an incoming req see
system.mem_ctrls.rdQLenPdf::24                      0                       # What read queue length does an incoming req see
system.mem_ctrls.rdQLenPdf::25                      0                       # What read queue length does an incoming req see
system.mem_ctrls.rdQLenPdf::26                      0                       # What read queue length does an incoming req see
system.mem_ctrls.rdQLenPdf::27                      0                       # What read queue length does an incoming req see
system.mem_ctrls.rdQLenPdf::28                      0                       # What read queue length does an incoming req see
system.mem_ctrls.rdQLenPdf::29                      0                       # What read queue length does an incoming req see
system.mem_ctrls.rdQLenPdf::30                      0                       # What read queue length does an incoming req see
system.mem_ctrls.rdQLenPdf::31                      0                       # What read queue length does an incoming req see
system.mem_ctrls.wrQLenPdf::0                       0                       # What write queue length does an incoming req see
system.mem_ctrls.wrQLenPdf::1                       0                       # What write queue length does an incoming req see
system.mem_ctrls.wrQLenPdf::2                       0                       # What write queue length does an incoming req see
system.mem_ctrls.wrQLenPdf::3                       0                       # What write queue length does an incoming req see
system.mem_ctrls.wrQLenPdf::4                       0                       # What write queue length does an incoming req see
system.mem_ctrls.wrQLenPdf::5                       0                       # What write queue length does an incoming req see
system.mem_ctrls.wrQLenPdf::6                       0                       # What write queue length does an incoming req see
system.mem_ctrls.wrQLenPdf::7                       0                       # What write queue length does an incoming req see
system.mem_ctrls.wrQLenPdf::8                       0                       # What write queue length does an incoming req see
system.mem_ctrls.wrQLenPdf::9                       0                       # What write queue length does an incoming req see
system.mem_ctrls.wrQLenPdf::10                      0                       # What write queue length does an incoming req see
system.mem_ctrls.wrQLenPdf::11                      0                       # What write queue length does an incoming req see
system.mem_ctrls.wrQLenPdf::12                      0                       # What write queue length does an incoming req see
system.mem_ctrls.wrQLenPdf::13                      0                       # What write queue length does an incoming req see
system.mem_ctrls.wrQLenPdf::14                      0                       # What write queue length does an incoming req see
system.mem_ctrls.wrQLenPdf::15                      0                       # What write queue length does an incoming req see
system.mem_ctrls.wrQLenPdf::16                      0                       # What write queue length does an incoming req see
system.mem_ctrls.wrQLenPdf::17                      0                       # What write queue length does an incoming req see
system.mem_ctrls.wrQLenPdf::18                      0                       # What write queue length does an incoming req see
system.mem_ctrls.wrQLenPdf::19                      0                       # What write queue length does an incoming req see
system.mem_ctrls.wrQLenPdf::20                      0                       # What write queue length does an incoming req see
system.mem_ctrls.wrQLenPdf::21                      0                       # What write queue length does an incoming req see
system.mem_ctrls.wrQLenPdf::22                      0                       # What write queue length does an incoming req see
system.mem_ctrls.wrQLenPdf::23                      0                       # What write queue length does an incoming req see
system.mem_ctrls.wrQLenPdf::24                      0                       # What write queue length does an incoming req see
system.mem_ctrls.wrQLenPdf::25                      0                       # What write queue length does an incoming req see
system.mem_ctrls.wrQLenPdf::26                      0                       # What write queue length does an incoming req see
system.mem_ctrls.wrQLenPdf::27                      0                       # What write queue length does an incoming req see
system.mem_ctrls.wrQLenPdf::28                      0                       # What write queue length does an incoming req see
system.mem_ctrls.wrQLenPdf::29                      0                       # What write queue length does an incoming req see
system.mem_ctrls.wrQLenPdf::30                      0                       # What write queue length does an incoming req see
system.mem_ctrls.wrQLenPdf::31                      0                       # What write queue length does an incoming req see
system.mem_ctrls.wrQLenPdf::32                      0                       # What write queue length does an incoming req see
system.mem_ctrls.wrQLenPdf::33                      0                       # What write queue length does an incoming req see
system.mem_ctrls.wrQLenPdf::34                      0                       # What write queue length does an incoming req see
system.mem_ctrls.wrQLenPdf::35                      0                       # What write queue length does an incoming req see
system.mem_ctrls.wrQLenPdf::36                      0                       # What write queue length does an incoming req see
system.mem_ctrls.wrQLenPdf::37                      0                       # What write queue length does an incoming req see
system.mem_ctrls.wrQLenPdf::38                      0                       # What write queue length does an incoming req see
system.mem_ctrls.wrQLenPdf::39                      0                       # What write queue length does an incoming req see
system.mem_ctrls.wrQLenPdf::40                      0                       # What write queue length does an incoming req see
system.mem_ctrls.wrQLenPdf::41                      0                       # What write queue length does an incoming req see
system.mem_ctrls.wrQLenPdf::42                      0                       # What write queue length does an incoming req see
system.mem_ctrls.wrQLenPdf::43                      0                       # What write queue length does an incoming req see
system.mem_ctrls.wrQLenPdf::44                      0                       # What write queue length does an incoming req see
system.mem_ctrls.wrQLenPdf::45                      0                       # What write queue length does an incoming req see
system.mem_ctrls.wrQLenPdf::46                      0                       # What write queue length does an incoming req see
system.mem_ctrls.wrQLenPdf::47                      0                       # What write queue length does an incoming req see
system.mem_ctrls.wrQLenPdf::48                      0                       # What write queue length does an incoming req see
system.mem_ctrls.wrQLenPdf::49                      0                       # What write queue length does an incoming req see
system.mem_ctrls.wrQLenPdf::50                      0                       # What write queue length does an incoming req see
system.mem_ctrls.wrQLenPdf::51                      0                       # What write queue length does an incoming req see
system.mem_ctrls.wrQLenPdf::52                      0                       # What write queue length does an incoming req see
system.mem_ctrls.wrQLenPdf::53                      0                       # What write queue length does an incoming req see
system.mem_ctrls.wrQLenPdf::54                      0                       # What write queue length does an incoming req see
system.mem_ctrls.wrQLenPdf::55                      0                       # What write queue length does an incoming req see
system.mem_ctrls.wrQLenPdf::56                      0                       # What write queue length does an incoming req see
system.mem_ctrls.wrQLenPdf::57                      0                       # What write queue length does an incoming req see
system.mem_ctrls.wrQLenPdf::58                      0                       # What write queue length does an incoming req see
system.mem_ctrls.wrQLenPdf::59                      0                       # What write queue length does an incoming req see
system.mem_ctrls.wrQLenPdf::60                      0                       # What write queue length does an incoming req see
system.mem_ctrls.wrQLenPdf::61                      0                       # What write queue length does an incoming req see
system.mem_ctrls.wrQLenPdf::62                      0                       # What write queue length does an incoming req see
system.mem_ctrls.wrQLenPdf::63                      0                       # What write queue length does an incoming req see
system.mem_ctrls.bytesPerActivate::samples          311                       # Bytes accessed per row activation
system.mem_ctrls.bytesPerActivate::mean    326.790997                       # Bytes accessed per row activation
system.mem_ctrls.bytesPerActivate::gmean   247.067344                       # Bytes accessed per row activation
system.mem_ctrls.bytesPerActivate::stdev   270.346357                       # Bytes accessed per row activation
system.mem_ctrls.bytesPerActivate::128-255          144     46.30%     46.30% # Bytes accessed per row activation
system.mem_ctrls.bytesPerActivate::256-383           64     20.58%     66.88% # Bytes accessed per row activation
system.mem_ctrls.bytesPerActivate::384-511           28      9.00%     75.88% # Bytes accessed per row activation
system.mem_ctrls.bytesPerActivate::512-639           23      7.40%     83.28% # Bytes accessed per row activation
system.mem_ctrls.bytesPerActivate::640-767           15      4.82%     88.10% # Bytes accessed per row activation
system.mem_ctrls.bytesPerActivate::768-895           11      3.54%     91.64% # Bytes accessed per row activation
system.mem_ctrls.bytesPerActivate::896-1023            3      0.96%     92.60% # Bytes accessed per row activation
system.mem_ctrls.bytesPerActivate::1024-1151           23      7.40%    100.00% # Bytes accessed per row activation
system.mem_ctrls.bytesPerActivate::total          311                       # Bytes accessed per row activation
system.mem_ctrls.totQLat                     19714500                       # Total ticks spent queuing
system.mem_ctrls.totMemAccLat                50164500                       # Total ticks spent from burst creation until serviced by the DRAM
system.mem_ctrls.totBusLat                    8120000                       # Total ticks spent in databus transfers
system.mem_ctrls.avgQLat                     12139.47                       # Average queueing delay per DRAM burst
system.mem_ctrls.avgBusLat                    5000.00                       # Average bus latency per DRAM burst
system.mem_ctrls.avgMemAccLat                30889.47                       # Average memory access latency per DRAM burst
system.mem_ctrls.avgRdBW                        71.22                       # Average DRAM read bandwidth in MiByte/s
system.mem_ctrls.avgWrBW                         0.00                       # Average achieved write bandwidth in MiByte/s
system.mem_ctrls.avgRdBWSys                     71.22                       # Average system read bandwidth in MiByte/s
system.mem_ctrls.avgWrBWSys                      0.00                       # Average system write bandwidth in MiByte/s
system.mem_ctrls.peakBW                      12800.00                       # Theoretical peak bandwidth in MiByte/s
system.mem_ctrls.busUtil                         0.56                       # Data bus utilization in percentage
system.mem_ctrls.busUtilRead                     0.56                       # Data bus utilization in percentage for reads
system.mem_ctrls.busUtilWrite                    0.00                       # Data bus utilization in percentage for writes
system.mem_ctrls.avgRdQLen                       2.04                       # Average read queue length when enqueuing
system.mem_ctrls.avgWrQLen                       0.00                       # Average write queue length when enqueuing
system.mem_ctrls.readRowHits                     1307                       # Number of row buffer hits during reads
system.mem_ctrls.writeRowHits                       0                       # Number of row buffer hits during writes
system.mem_ctrls.readRowHitRate                 80.48                       # Row buffer hit rate for reads
system.mem_ctrls.writeRowHitRate                  nan                       # Row buffer hit rate for writes
system.mem_ctrls.avgGap                    1797044.33                       # Average gap between requests
system.mem_ctrls.pageHitRate                    80.48                       # Row buffer hit rate, read and write combined
system.mem_ctrls_0.actEnergy                  1050840                       # Energy for activate commands per rank (pJ)
system.mem_ctrls_0.preEnergy                   573375                       # Energy for precharge commands per rank (pJ)
system.mem_ctrls_0.readEnergy                 5413200                       # Energy for read commands per rank (pJ)
system.mem_ctrls_0.writeEnergy                      0                       # Energy for write commands per rank (pJ)
system.mem_ctrls_0.refreshEnergy             95100720                       # Energy for refresh commands per rank (pJ)
system.mem_ctrls_0.actBackEnergy            167350860                       # Energy for active background per rank (pJ)
system.mem_ctrls_0.preBackEnergy            726974250                       # Energy for precharge background per rank (pJ)
system.mem_ctrls_0.totalEnergy              996463245                       # Total energy per rank (pJ)
system.mem_ctrls_0.averagePower            684.248399                       # Core power per rank (mW)
system.mem_ctrls_0.memoryStateTime::IDLE   1209254000                       # Time in different power states
system.mem_ctrls_0.memoryStateTime::REF      48620000                       # Time in different power states
system.mem_ctrls_0.memoryStateTime::PRE_PDN            0                       # Time in different power states
system.mem_ctrls_0.memoryStateTime::ACT     199280000                       # Time in different power states
system.mem_ctrls_0.memoryStateTime::ACT_PDN            0                       # Time in different power states
system.mem_ctrls_1.actEnergy                  1277640                       # Energy for activate commands per rank (pJ)
system.mem_ctrls_1.preEnergy                   697125                       # Energy for precharge commands per rank (pJ)
system.mem_ctrls_1.readEnergy                 6895200                       # Energy for read commands per rank (pJ)
system.mem_ctrls_1.writeEnergy                      0                       # Energy for write commands per rank (pJ)
system.mem_ctrls_1.refreshEnergy             95100720                       # Energy for refresh commands per rank (pJ)
system.mem_ctrls_1.actBackEnergy            220332645                       # Energy for active background per rank (pJ)
system.mem_ctrls_1.preBackEnergy            680490750                       # Energy for precharge background per rank (pJ)
system.mem_ctrls_1.totalEnergy             1004794080                       # Total energy per rank (pJ)
system.mem_ctrls_1.averagePower            689.975506                       # Core power per rank (mW)
system.mem_ctrls_1.memoryStateTime::IDLE   1131343000                       # Time in different power states
system.mem_ctrls_1.memoryStateTime::REF      48620000                       # Time in different power states
system.mem_ctrls_1.memoryStateTime::PRE_PDN            0                       # Time in different power states
system.mem_ctrls_1.memoryStateTime::ACT     277096500                       # Time in different power states
system.mem_ctrls_1.memoryStateTime::ACT_PDN            0                       # Time in different power states
system.ruby_clk_domain.clock                      500                       # Clock period in ticks
system.ruby.phys_mem.bytes_read::cpu0.inst      8359688                       # Number of bytes read from this memory
system.ruby.phys_mem.bytes_read::cpu0.data      1081943                       # Number of bytes read from this memory
system.ruby.phys_mem.bytes_read::gpu.ce          4892                       # Number of bytes read from this memory
system.ruby.phys_mem.bytes_read::gpu.shader_cores0.data         7584                       # Number of bytes read from this memory
system.ruby.phys_mem.bytes_read::gpu.shader_cores0.inst           96                       # Number of bytes read from this memory
system.ruby.phys_mem.bytes_read::gpu.shader_cores1.data         1760                       # Number of bytes read from this memory
system.ruby.phys_mem.bytes_read::gpu.shader_cores1.inst           96                       # Number of bytes read from this memory
system.ruby.phys_mem.bytes_read::total        9456059                       # Number of bytes read from this memory
system.ruby.phys_mem.bytes_inst_read::cpu0.inst      8359688                       # Number of instructions bytes read from this memory
system.ruby.phys_mem.bytes_inst_read::gpu.shader_cores0.inst           96                       # Number of instructions bytes read from this memory
system.ruby.phys_mem.bytes_inst_read::gpu.shader_cores1.inst           96                       # Number of instructions bytes read from this memory
system.ruby.phys_mem.bytes_inst_read::total      8359880                       # Number of instructions bytes read from this memory
system.ruby.phys_mem.bytes_written::cpu0.data       750920                       # Number of bytes written to this memory
system.ruby.phys_mem.bytes_written::gpu.ce         4892                       # Number of bytes written to this memory
system.ruby.phys_mem.bytes_written::gpu.shader_cores0.data         2176                       # Number of bytes written to this memory
system.ruby.phys_mem.bytes_written::gpu.shader_cores1.data           64                       # Number of bytes written to this memory
system.ruby.phys_mem.bytes_written::total       758052                       # Number of bytes written to this memory
system.ruby.phys_mem.num_reads::cpu0.inst      1044961                       # Number of read requests responded to by this memory
system.ruby.phys_mem.num_reads::cpu0.data       174008                       # Number of read requests responded to by this memory
system.ruby.phys_mem.num_reads::gpu.ce             45                       # Number of read requests responded to by this memory
system.ruby.phys_mem.num_reads::gpu.shader_cores0.data           85                       # Number of read requests responded to by this memory
system.ruby.phys_mem.num_reads::gpu.shader_cores0.inst            6                       # Number of read requests responded to by this memory
system.ruby.phys_mem.num_reads::gpu.shader_cores1.data           24                       # Number of read requests responded to by this memory
system.ruby.phys_mem.num_reads::gpu.shader_cores1.inst            6                       # Number of read requests responded to by this memory
system.ruby.phys_mem.num_reads::total         1219135                       # Number of read requests responded to by this memory
system.ruby.phys_mem.num_writes::cpu0.data       118425                       # Number of write requests responded to by this memory
system.ruby.phys_mem.num_writes::gpu.ce            44                       # Number of write requests responded to by this memory
system.ruby.phys_mem.num_writes::gpu.shader_cores0.data           50                       # Number of write requests responded to by this memory
system.ruby.phys_mem.num_writes::gpu.shader_cores1.data            8                       # Number of write requests responded to by this memory
system.ruby.phys_mem.num_writes::total         118527                       # Number of write requests responded to by this memory
system.ruby.phys_mem.bw_read::cpu0.inst    5728705518                       # Total read bandwidth from this memory (bytes/s)
system.ruby.phys_mem.bw_read::cpu0.data     741431120                       # Total read bandwidth from this memory (bytes/s)
system.ruby.phys_mem.bw_read::gpu.ce          3352377                       # Total read bandwidth from this memory (bytes/s)
system.ruby.phys_mem.bw_read::gpu.shader_cores0.data      5197144                       # Total read bandwidth from this memory (bytes/s)
system.ruby.phys_mem.bw_read::gpu.shader_cores0.inst        65787                       # Total read bandwidth from this memory (bytes/s)
system.ruby.phys_mem.bw_read::gpu.shader_cores1.data      1206088                       # Total read bandwidth from this memory (bytes/s)
system.ruby.phys_mem.bw_read::gpu.shader_cores1.inst        65787                       # Total read bandwidth from this memory (bytes/s)
system.ruby.phys_mem.bw_read::total        6480023820                       # Total read bandwidth from this memory (bytes/s)
system.ruby.phys_mem.bw_inst_read::cpu0.inst   5728705518                       # Instruction read bandwidth from this memory (bytes/s)
system.ruby.phys_mem.bw_inst_read::gpu.shader_cores0.inst        65787                       # Instruction read bandwidth from this memory (bytes/s)
system.ruby.phys_mem.bw_inst_read::gpu.shader_cores1.inst        65787                       # Instruction read bandwidth from this memory (bytes/s)
system.ruby.phys_mem.bw_inst_read::total   5728837091                       # Instruction read bandwidth from this memory (bytes/s)
system.ruby.phys_mem.bw_write::cpu0.data    514588529                       # Write bandwidth from this memory (bytes/s)
system.ruby.phys_mem.bw_write::gpu.ce         3352377                       # Write bandwidth from this memory (bytes/s)
system.ruby.phys_mem.bw_write::gpu.shader_cores0.data      1491164                       # Write bandwidth from this memory (bytes/s)
system.ruby.phys_mem.bw_write::gpu.shader_cores1.data        43858                       # Write bandwidth from this memory (bytes/s)
system.ruby.phys_mem.bw_write::total        519475927                       # Write bandwidth from this memory (bytes/s)
system.ruby.phys_mem.bw_total::cpu0.inst   5728705518                       # Total bandwidth to/from this memory (bytes/s)
system.ruby.phys_mem.bw_total::cpu0.data   1256019648                       # Total bandwidth to/from this memory (bytes/s)
system.ruby.phys_mem.bw_total::gpu.ce         6704754                       # Total bandwidth to/from this memory (bytes/s)
system.ruby.phys_mem.bw_total::gpu.shader_cores0.data      6688308                       # Total bandwidth to/from this memory (bytes/s)
system.ruby.phys_mem.bw_total::gpu.shader_cores0.inst        65787                       # Total bandwidth to/from this memory (bytes/s)
system.ruby.phys_mem.bw_total::gpu.shader_cores1.data      1249946                       # Total bandwidth to/from this memory (bytes/s)
system.ruby.phys_mem.bw_total::gpu.shader_cores1.inst        65787                       # Total bandwidth to/from this memory (bytes/s)
system.ruby.phys_mem.bw_total::total       6999499747                       # Total bandwidth to/from this memory (bytes/s)
system.cpu_voltage_domain.voltage                   1                       # Voltage in Volts
system.cpu_clk_domain.clock                       500                       # Clock period in ticks
system.cpu0.apic_clk_domain.clock                8000                       # Clock period in ticks
system.cpu0.workload.num_syscalls                  44                       # Number of system calls
system.cpu0.numCycles                         2918526                       # number of cpu cycles simulated
system.cpu0.numWorkItemsStarted                     1                       # number of work items this cpu started
system.cpu0.numWorkItemsCompleted                   1                       # number of work items this cpu completed
system.cpu0.committedInsts                     773012                       # Number of instructions committed
system.cpu0.committedOps                      1511261                       # Number of ops (including micro ops) committed
system.cpu0.num_int_alu_accesses              1483575                       # Number of integer alu accesses
system.cpu0.num_fp_alu_accesses                 36551                       # Number of float alu accesses
system.cpu0.num_func_calls                      25761                       # number of times a function call or return occured
system.cpu0.num_conditional_control_insts       140988                       # number of instructions that are conditional controls
system.cpu0.num_int_insts                     1483575                       # number of integer instructions
system.cpu0.num_fp_insts                        36551                       # number of float instructions
system.cpu0.num_int_register_reads            2801575                       # number of times the integer registers were read
system.cpu0.num_int_register_writes           1180024                       # number of times the integer registers were written
system.cpu0.num_fp_register_reads               54213                       # number of times the floating registers were read
system.cpu0.num_fp_register_writes              26422                       # number of times the floating registers were written
system.cpu0.num_cc_register_reads              950904                       # number of times the CC registers were read
system.cpu0.num_cc_register_writes             478663                       # number of times the CC registers were written
system.cpu0.num_mem_refs                       292406                       # number of memory refs
system.cpu0.num_load_insts                     173982                       # Number of load instructions
system.cpu0.num_store_insts                    118424                       # Number of store instructions
system.cpu0.num_idle_cycles              51397.097965                       # Number of idle cycles
system.cpu0.num_busy_cycles              2867128.902035                       # Number of busy cycles
system.cpu0.not_idle_fraction                0.982389                       # Percentage of non-idle cycles
system.cpu0.idle_fraction                    0.017611                       # Percentage of idle cycles
system.cpu0.Branches                           187173                       # Number of branches fetched
system.cpu0.op_class::No_OpClass                 6237      0.41%      0.41% # Class of executed instruction
system.cpu0.op_class::IntAlu                  1185558     78.45%     78.86% # Class of executed instruction
system.cpu0.op_class::IntMult                    3320      0.22%     79.08% # Class of executed instruction
system.cpu0.op_class::IntDiv                      576      0.04%     79.12% # Class of executed instruction
system.cpu0.op_class::FloatAdd                  23164      1.53%     80.65% # Class of executed instruction
system.cpu0.op_class::FloatCmp                      0      0.00%     80.65% # Class of executed instruction
system.cpu0.op_class::FloatCvt                      0      0.00%     80.65% # Class of executed instruction
system.cpu0.op_class::FloatMult                     0      0.00%     80.65% # Class of executed instruction
system.cpu0.op_class::FloatDiv                      0      0.00%     80.65% # Class of executed instruction
system.cpu0.op_class::FloatSqrt                     0      0.00%     80.65% # Class of executed instruction
system.cpu0.op_class::SimdAdd                       0      0.00%     80.65% # Class of executed instruction
system.cpu0.op_class::SimdAddAcc                    0      0.00%     80.65% # Class of executed instruction
system.cpu0.op_class::SimdAlu                       0      0.00%     80.65% # Class of executed instruction
system.cpu0.op_class::SimdCmp                       0      0.00%     80.65% # Class of executed instruction
system.cpu0.op_class::SimdCvt                       0      0.00%     80.65% # Class of executed instruction
system.cpu0.op_class::SimdMisc                      0      0.00%     80.65% # Class of executed instruction
system.cpu0.op_class::SimdMult                      0      0.00%     80.65% # Class of executed instruction
system.cpu0.op_class::SimdMultAcc                   0      0.00%     80.65% # Class of executed instruction
system.cpu0.op_class::SimdShift                     0      0.00%     80.65% # Class of executed instruction
system.cpu0.op_class::SimdShiftAcc                  0      0.00%     80.65% # Class of executed instruction
system.cpu0.op_class::SimdSqrt                      0      0.00%     80.65% # Class of executed instruction
system.cpu0.op_class::SimdFloatAdd                  0      0.00%     80.65% # Class of executed instruction
system.cpu0.op_class::SimdFloatAlu                  0      0.00%     80.65% # Class of executed instruction
system.cpu0.op_class::SimdFloatCmp                  0      0.00%     80.65% # Class of executed instruction
system.cpu0.op_class::SimdFloatCvt                  0      0.00%     80.65% # Class of executed instruction
system.cpu0.op_class::SimdFloatDiv                  0      0.00%     80.65% # Class of executed instruction
system.cpu0.op_class::SimdFloatMisc                 0      0.00%     80.65% # Class of executed instruction
system.cpu0.op_class::SimdFloatMult                 0      0.00%     80.65% # Class of executed instruction
system.cpu0.op_class::SimdFloatMultAcc              0      0.00%     80.65% # Class of executed instruction
system.cpu0.op_class::SimdFloatSqrt                 0      0.00%     80.65% # Class of executed instruction
system.cpu0.op_class::MemRead                  173982     11.51%     92.16% # Class of executed instruction
system.cpu0.op_class::MemWrite                 118424      7.84%    100.00% # Class of executed instruction
system.cpu0.op_class::IprAccess                     0      0.00%    100.00% # Class of executed instruction
system.cpu0.op_class::InstPrefetch                  0      0.00%    100.00% # Class of executed instruction
system.cpu0.op_class::total                   1511261                       # Class of executed instruction
system.cpu1.apic_clk_domain.clock                8000                       # Clock period in ticks
system.cpu1.numCycles                               0                       # number of cpu cycles simulated
system.cpu1.numWorkItemsStarted                     0                       # number of work items this cpu started
system.cpu1.numWorkItemsCompleted                   0                       # number of work items this cpu completed
system.cpu1.committedInsts                          0                       # Number of instructions committed
system.cpu1.committedOps                            0                       # Number of ops (including micro ops) committed
system.cpu1.num_int_alu_accesses                    0                       # Number of integer alu accesses
system.cpu1.num_fp_alu_accesses                     0                       # Number of float alu accesses
system.cpu1.num_func_calls                          0                       # number of times a function call or return occured
system.cpu1.num_conditional_control_insts            0                       # number of instructions that are conditional controls
system.cpu1.num_int_insts                           0                       # number of integer instructions
system.cpu1.num_fp_insts                            0                       # number of float instructions
system.cpu1.num_int_register_reads                  0                       # number of times the integer registers were read
system.cpu1.num_int_register_writes                 0                       # number of times the integer registers were written
system.cpu1.num_fp_register_reads                   0                       # number of times the floating registers were read
system.cpu1.num_fp_register_writes                  0                       # number of times the floating registers were written
system.cpu1.num_mem_refs                            0                       # number of memory refs
system.cpu1.num_load_insts                          0                       # Number of load instructions
system.cpu1.num_store_insts                         0                       # Number of store instructions
system.cpu1.num_idle_cycles                         0                       # Number of idle cycles
system.cpu1.num_busy_cycles                         0                       # Number of busy cycles
system.cpu1.not_idle_fraction                       0                       # Percentage of non-idle cycles
system.cpu1.idle_fraction                           1                       # Percentage of idle cycles
system.cpu1.op_class::No_OpClass                    0                       # Class of executed instruction
system.cpu1.op_class::IntAlu                        0                       # Class of executed instruction
system.cpu1.op_class::IntMult                       0                       # Class of executed instruction
system.cpu1.op_class::IntDiv                        0                       # Class of executed instruction
system.cpu1.op_class::FloatAdd                      0                       # Class of executed instruction
system.cpu1.op_class::FloatCmp                      0                       # Class of executed instruction
system.cpu1.op_class::FloatCvt                      0                       # Class of executed instruction
system.cpu1.op_class::FloatMult                     0                       # Class of executed instruction
system.cpu1.op_class::FloatDiv                      0                       # Class of executed instruction
system.cpu1.op_class::FloatSqrt                     0                       # Class of executed instruction
system.cpu1.op_class::SimdAdd                       0                       # Class of executed instruction
system.cpu1.op_class::SimdAddAcc                    0                       # Class of executed instruction
system.cpu1.op_class::SimdAlu                       0                       # Class of executed instruction
system.cpu1.op_class::SimdCmp                       0                       # Class of executed instruction
system.cpu1.op_class::SimdCvt                       0                       # Class of executed instruction
system.cpu1.op_class::SimdMisc                      0                       # Class of executed instruction
system.cpu1.op_class::SimdMult                      0                       # Class of executed instruction
system.cpu1.op_class::SimdMultAcc                   0                       # Class of executed instruction
system.cpu1.op_class::SimdShift                     0                       # Class of executed instruction
system.cpu1.op_class::SimdShiftAcc                  0                       # Class of executed instruction
system.cpu1.op_class::SimdSqrt                      0                       # Class of executed instruction
system.cpu1.op_class::SimdFloatAdd                  0                       # Class of executed instruction
system.cpu1.op_class::SimdFloatAlu                  0                       # Class of executed instruction
system.cpu1.op_class::SimdFloatCmp                  0                       # Class of executed instruction
system.cpu1.op_class::SimdFloatCvt                  0                       # Class of executed instruction
system.cpu1.op_class::SimdFloatDiv                  0                       # Class of executed instruction
system.cpu1.op_class::SimdFloatMisc                 0                       # Class of executed instruction
system.cpu1.op_class::SimdFloatMult                 0                       # Class of executed instruction
system.cpu1.op_class::SimdFloatMultAcc              0                       # Class of executed instruction
system.cpu1.op_class::SimdFloatSqrt                 0                       # Class of executed instruction
system.cpu1.op_class::MemRead                       0                       # Class of executed instruction
system.cpu1.op_class::MemWrite                      0                       # Class of executed instruction
system.cpu1.op_class::IprAccess                     0                       # Class of executed instruction
system.cpu1.op_class::InstPrefetch                  0                       # Class of executed instruction
system.cpu1.op_class::total                         0                       # Class of executed instruction
system.gpu.clk_domain.voltage_domain.voltage            1                       # Voltage in Volts
system.gpu.clk_domain.clock                      1429                       # Clock period in ticks
system.gpu.dram_wrapper.clk_domain.clock          541                       # Clock period in ticks
system.gpu.icnt_wrapper.clk_domain.clock         2858                       # Clock period in ticks
system.ruby.delayHist::bucket_size                 32                       # delay histogram for all message
system.ruby.delayHist::max_bucket                 319                       # delay histogram for all message
system.ruby.delayHist::samples                  16007                       # delay histogram for all message
system.ruby.delayHist::mean                  0.805398                       # delay histogram for all message
system.ruby.delayHist::stdev                 8.309913                       # delay histogram for all message
system.ruby.delayHist                    |       15889     99.26%     99.26% |          43      0.27%     99.53% |          33      0.21%     99.74% |          23      0.14%     99.88% |          11      0.07%     99.95% |           4      0.02%     99.98% |           4      0.02%    100.00% |           0      0.00%    100.00% |           0      0.00%    100.00% |           0      0.00%    100.00% # delay histogram for all message
system.ruby.delayHist::total                    16007                       # delay histogram for all message
system.ruby.outstanding_req_hist::bucket_size            2                      
system.ruby.outstanding_req_hist::max_bucket           19                      
system.ruby.outstanding_req_hist::samples      1337662                      
system.ruby.outstanding_req_hist::mean       1.000556                      
system.ruby.outstanding_req_hist::gmean      1.000200                      
system.ruby.outstanding_req_hist::stdev      0.057154                      
system.ruby.outstanding_req_hist         |     1337477     99.99%     99.99% |          73      0.01%     99.99% |          38      0.00%     99.99% |          27      0.00%    100.00% |          40      0.00%    100.00% |           7      0.00%    100.00% |           0      0.00%    100.00% |           0      0.00%    100.00% |           0      0.00%    100.00% |           0      0.00%    100.00%
system.ruby.outstanding_req_hist::total       1337662                      
system.ruby.latency_hist::bucket_size             128                      
system.ruby.latency_hist::max_bucket             1279                      
system.ruby.latency_hist::samples             1337662                      
system.ruby.latency_hist::mean               1.152388                      
system.ruby.latency_hist::gmean              1.014403                      
system.ruby.latency_hist::stdev              3.856975                      
system.ruby.latency_hist                 |     1337306     99.97%     99.97% |         345      0.03%    100.00% |           4      0.00%    100.00% |           1      0.00%    100.00% |           4      0.00%    100.00% |           2      0.00%    100.00% |           0      0.00%    100.00% |           0      0.00%    100.00% |           0      0.00%    100.00% |           0      0.00%    100.00%
system.ruby.latency_hist::total               1337662                      
system.ruby.hit_latency_hist::bucket_size            1                      
system.ruby.hit_latency_hist::max_bucket            9                      
system.ruby.hit_latency_hist::samples         1331558                      
system.ruby.hit_latency_hist::mean                  1                      
system.ruby.hit_latency_hist::gmean                 1                      
system.ruby.hit_latency_hist             |           0      0.00%      0.00% |     1331558    100.00%    100.00% |           0      0.00%    100.00% |           0      0.00%    100.00% |           0      0.00%    100.00% |           0      0.00%    100.00% |           0      0.00%    100.00% |           0      0.00%    100.00% |           0      0.00%    100.00% |           0      0.00%    100.00%
system.ruby.hit_latency_hist::total           1331558                      
system.ruby.miss_latency_hist::bucket_size          128                      
system.ruby.miss_latency_hist::max_bucket         1279                      
system.ruby.miss_latency_hist::samples           6104                      
system.ruby.miss_latency_hist::mean         34.395151                      
system.ruby.miss_latency_hist::gmean        22.959594                      
system.ruby.miss_latency_hist::stdev        46.370928                      
system.ruby.miss_latency_hist            |        5748     94.17%     94.17% |         345      5.65%     99.82% |           4      0.07%     99.89% |           1      0.02%     99.90% |           4      0.07%     99.97% |           2      0.03%    100.00% |           0      0.00%    100.00% |           0      0.00%    100.00% |           0      0.00%    100.00% |           0      0.00%    100.00%
system.ruby.miss_latency_hist::total             6104                      
system.gpu.shader_mmu.numPagefaults                 0                       # Number of Pagefaults
system.gpu.shader_mmu.numPagewalks                 11                       # Number of Pagewalks
system.gpu.shader_mmu.totalRequests                11                       # Total number of requests
system.gpu.shader_mmu.l2hits                        0                       # Hits in the shared L2
system.gpu.shader_mmu.prefetchHits                  0                       # Number of prefetch hits
system.gpu.shader_mmu.numPrefetches                 0                       # Number of prefetchs
system.gpu.shader_mmu.prefetchFaults                0                       # Number of faults caused by prefetches
system.gpu.shader_mmu.pagefaultLatency::samples            0                       # Latency to complete the pagefault
system.gpu.shader_mmu.pagefaultLatency::mean          nan                       # Latency to complete the pagefault
system.gpu.shader_mmu.pagefaultLatency::gmean          nan                       # Latency to complete the pagefault
system.gpu.shader_mmu.pagefaultLatency::stdev          nan                       # Latency to complete the pagefault
system.gpu.shader_mmu.pagefaultLatency::0            0                       # Latency to complete the pagefault
system.gpu.shader_mmu.pagefaultLatency::1            0                       # Latency to complete the pagefault
system.gpu.shader_mmu.pagefaultLatency::2            0                       # Latency to complete the pagefault
system.gpu.shader_mmu.pagefaultLatency::3            0                       # Latency to complete the pagefault
system.gpu.shader_mmu.pagefaultLatency::4            0                       # Latency to complete the pagefault
system.gpu.shader_mmu.pagefaultLatency::5            0                       # Latency to complete the pagefault
system.gpu.shader_mmu.pagefaultLatency::6            0                       # Latency to complete the pagefault
system.gpu.shader_mmu.pagefaultLatency::7            0                       # Latency to complete the pagefault
system.gpu.shader_mmu.pagefaultLatency::8            0                       # Latency to complete the pagefault
system.gpu.shader_mmu.pagefaultLatency::9            0                       # Latency to complete the pagefault
system.gpu.shader_mmu.pagefaultLatency::10            0                       # Latency to complete the pagefault
system.gpu.shader_mmu.pagefaultLatency::11            0                       # Latency to complete the pagefault
system.gpu.shader_mmu.pagefaultLatency::12            0                       # Latency to complete the pagefault
system.gpu.shader_mmu.pagefaultLatency::13            0                       # Latency to complete the pagefault
system.gpu.shader_mmu.pagefaultLatency::14            0                       # Latency to complete the pagefault
system.gpu.shader_mmu.pagefaultLatency::15            0                       # Latency to complete the pagefault
system.gpu.shader_mmu.pagefaultLatency::16            0                       # Latency to complete the pagefault
system.gpu.shader_mmu.pagefaultLatency::17            0                       # Latency to complete the pagefault
system.gpu.shader_mmu.pagefaultLatency::18            0                       # Latency to complete the pagefault
system.gpu.shader_mmu.pagefaultLatency::19            0                       # Latency to complete the pagefault
system.gpu.shader_mmu.pagefaultLatency::20            0                       # Latency to complete the pagefault
system.gpu.shader_mmu.pagefaultLatency::21            0                       # Latency to complete the pagefault
system.gpu.shader_mmu.pagefaultLatency::22            0                       # Latency to complete the pagefault
system.gpu.shader_mmu.pagefaultLatency::23            0                       # Latency to complete the pagefault
system.gpu.shader_mmu.pagefaultLatency::24            0                       # Latency to complete the pagefault
system.gpu.shader_mmu.pagefaultLatency::25            0                       # Latency to complete the pagefault
system.gpu.shader_mmu.pagefaultLatency::26            0                       # Latency to complete the pagefault
system.gpu.shader_mmu.pagefaultLatency::27            0                       # Latency to complete the pagefault
system.gpu.shader_mmu.pagefaultLatency::28            0                       # Latency to complete the pagefault
system.gpu.shader_mmu.pagefaultLatency::29            0                       # Latency to complete the pagefault
system.gpu.shader_mmu.pagefaultLatency::30            0                       # Latency to complete the pagefault
system.gpu.shader_mmu.pagefaultLatency::31            0                       # Latency to complete the pagefault
system.gpu.shader_mmu.pagefaultLatency::total            0                       # Latency to complete the pagefault
system.gpu.shader_mmu.concurrentWalks::samples           11                       # Number of outstanding walks
system.gpu.shader_mmu.concurrentWalks::mean            0                       # Number of outstanding walks
system.gpu.shader_mmu.concurrentWalks::gmean            0                       # Number of outstanding walks
system.gpu.shader_mmu.concurrentWalks::stdev            0                       # Number of outstanding walks
system.gpu.shader_mmu.concurrentWalks::0           11    100.00%    100.00% # Number of outstanding walks
system.gpu.shader_mmu.concurrentWalks::1            0      0.00%    100.00% # Number of outstanding walks
system.gpu.shader_mmu.concurrentWalks::2            0      0.00%    100.00% # Number of outstanding walks
system.gpu.shader_mmu.concurrentWalks::3            0      0.00%    100.00% # Number of outstanding walks
system.gpu.shader_mmu.concurrentWalks::4            0      0.00%    100.00% # Number of outstanding walks
system.gpu.shader_mmu.concurrentWalks::5            0      0.00%    100.00% # Number of outstanding walks
system.gpu.shader_mmu.concurrentWalks::6            0      0.00%    100.00% # Number of outstanding walks
system.gpu.shader_mmu.concurrentWalks::7            0      0.00%    100.00% # Number of outstanding walks
system.gpu.shader_mmu.concurrentWalks::8            0      0.00%    100.00% # Number of outstanding walks
system.gpu.shader_mmu.concurrentWalks::9            0      0.00%    100.00% # Number of outstanding walks
system.gpu.shader_mmu.concurrentWalks::10            0      0.00%    100.00% # Number of outstanding walks
system.gpu.shader_mmu.concurrentWalks::11            0      0.00%    100.00% # Number of outstanding walks
system.gpu.shader_mmu.concurrentWalks::12            0      0.00%    100.00% # Number of outstanding walks
system.gpu.shader_mmu.concurrentWalks::13            0      0.00%    100.00% # Number of outstanding walks
system.gpu.shader_mmu.concurrentWalks::14            0      0.00%    100.00% # Number of outstanding walks
system.gpu.shader_mmu.concurrentWalks::15            0      0.00%    100.00% # Number of outstanding walks
system.gpu.shader_mmu.concurrentWalks::total           11                       # Number of outstanding walks
system.gpu.shader_mmu.pagewalkLatency::samples           11                       # Latency to complete the pagewalk
system.gpu.shader_mmu.pagewalkLatency::mean            0                       # Latency to complete the pagewalk
system.gpu.shader_mmu.pagewalkLatency::gmean            0                       # Latency to complete the pagewalk
system.gpu.shader_mmu.pagewalkLatency::stdev            0                       # Latency to complete the pagewalk
system.gpu.shader_mmu.pagewalkLatency::0           11    100.00%    100.00% # Latency to complete the pagewalk
system.gpu.shader_mmu.pagewalkLatency::1            0      0.00%    100.00% # Latency to complete the pagewalk
system.gpu.shader_mmu.pagewalkLatency::2            0      0.00%    100.00% # Latency to complete the pagewalk
system.gpu.shader_mmu.pagewalkLatency::3            0      0.00%    100.00% # Latency to complete the pagewalk
system.gpu.shader_mmu.pagewalkLatency::4            0      0.00%    100.00% # Latency to complete the pagewalk
system.gpu.shader_mmu.pagewalkLatency::5            0      0.00%    100.00% # Latency to complete the pagewalk
system.gpu.shader_mmu.pagewalkLatency::6            0      0.00%    100.00% # Latency to complete the pagewalk
system.gpu.shader_mmu.pagewalkLatency::7            0      0.00%    100.00% # Latency to complete the pagewalk
system.gpu.shader_mmu.pagewalkLatency::8            0      0.00%    100.00% # Latency to complete the pagewalk
system.gpu.shader_mmu.pagewalkLatency::9            0      0.00%    100.00% # Latency to complete the pagewalk
system.gpu.shader_mmu.pagewalkLatency::10            0      0.00%    100.00% # Latency to complete the pagewalk
system.gpu.shader_mmu.pagewalkLatency::11            0      0.00%    100.00% # Latency to complete the pagewalk
system.gpu.shader_mmu.pagewalkLatency::12            0      0.00%    100.00% # Latency to complete the pagewalk
system.gpu.shader_mmu.pagewalkLatency::13            0      0.00%    100.00% # Latency to complete the pagewalk
system.gpu.shader_mmu.pagewalkLatency::14            0      0.00%    100.00% # Latency to complete the pagewalk
system.gpu.shader_mmu.pagewalkLatency::15            0      0.00%    100.00% # Latency to complete the pagewalk
system.gpu.shader_mmu.pagewalkLatency::16            0      0.00%    100.00% # Latency to complete the pagewalk
system.gpu.shader_mmu.pagewalkLatency::17            0      0.00%    100.00% # Latency to complete the pagewalk
system.gpu.shader_mmu.pagewalkLatency::18            0      0.00%    100.00% # Latency to complete the pagewalk
system.gpu.shader_mmu.pagewalkLatency::19            0      0.00%    100.00% # Latency to complete the pagewalk
system.gpu.shader_mmu.pagewalkLatency::20            0      0.00%    100.00% # Latency to complete the pagewalk
system.gpu.shader_mmu.pagewalkLatency::21            0      0.00%    100.00% # Latency to complete the pagewalk
system.gpu.shader_mmu.pagewalkLatency::22            0      0.00%    100.00% # Latency to complete the pagewalk
system.gpu.shader_mmu.pagewalkLatency::23            0      0.00%    100.00% # Latency to complete the pagewalk
system.gpu.shader_mmu.pagewalkLatency::24            0      0.00%    100.00% # Latency to complete the pagewalk
system.gpu.shader_mmu.pagewalkLatency::25            0      0.00%    100.00% # Latency to complete the pagewalk
system.gpu.shader_mmu.pagewalkLatency::26            0      0.00%    100.00% # Latency to complete the pagewalk
system.gpu.shader_mmu.pagewalkLatency::27            0      0.00%    100.00% # Latency to complete the pagewalk
system.gpu.shader_mmu.pagewalkLatency::28            0      0.00%    100.00% # Latency to complete the pagewalk
system.gpu.shader_mmu.pagewalkLatency::29            0      0.00%    100.00% # Latency to complete the pagewalk
system.gpu.shader_mmu.pagewalkLatency::30            0      0.00%    100.00% # Latency to complete the pagewalk
system.gpu.shader_mmu.pagewalkLatency::31            0      0.00%    100.00% # Latency to complete the pagewalk
system.gpu.shader_mmu.pagewalkLatency::total           11                       # Latency to complete the pagewalk
system.gpu.kernels_started                          2                       # Number of kernels started
system.gpu.kernels_completed                        2                       # Number of kernels completed
system.gpu.ce.device_dtb.hits                       0                       # Number of hits in this TLB
system.gpu.ce.device_dtb.misses                     0                       # Number of misses in this TLB
system.gpu.ce.device_dtb.hitRate                  nan                       # Hit rate for this TLB
system.gpu.ce.host_dtb.hits                        34                       # Number of hits in this TLB
system.gpu.ce.host_dtb.misses                      11                       # Number of misses in this TLB
system.gpu.ce.host_dtb.hitRate               0.755556                       # Hit rate for this TLB
system.gpu.ce.numOperations                         8                       # Number of copy/memset operations
system.gpu.ce.opBytesRead                        4892                       # Number of copy bytes read
system.gpu.ce.opBytesWritten                     4892                       # Number of copy/memset bytes written
system.gpu.ce.opTimeTicks                    40824995                       # Total time spent in copy/memset operations
system.gpu.shader_cores0.itb.hits                   0                       # Number of hits in this TLB
system.gpu.shader_cores0.itb.misses                 0                       # Number of misses in this TLB
system.gpu.shader_cores0.itb.hitRate              nan                       # Hit rate for this TLB
system.gpu.shader_cores0.local_loads                0                       # Number of loads from local space
system.gpu.shader_cores0.local_stores               0                       # Number of stores to local space
system.gpu.shader_cores0.shared_loads               0                       # Number of loads from shared space
system.gpu.shader_cores0.shared_stores              0                       # Number of stores to shared space
system.gpu.shader_cores0.param_kernel_loads         1280                       # Number of loads from kernel parameter space
system.gpu.shader_cores0.param_local_loads            0                       # Number of loads from local parameter space
system.gpu.shader_cores0.param_local_stores            0                       # Number of stores to local parameter space
system.gpu.shader_cores0.const_loads                0                       # Number of loads from constant space
system.gpu.shader_cores0.tex_loads                  0                       # Number of loads from texture space
system.gpu.shader_cores0.global_loads            1872                       # Number of loads from global space
system.gpu.shader_cores0.global_stores            544                       # Number of stores to global space
system.gpu.shader_cores0.surf_loads                 0                       # Number of loads from surface space
system.gpu.shader_cores0.generic_loads              0                       # Number of loads from generic spaces (global, shared, local)
system.gpu.shader_cores0.generic_stores             0                       # Number of stores to generic spaces (global, shared, local)
system.gpu.shader_cores0.inst_cache_requests            6                       # Number of instruction cache requests sent
system.gpu.shader_cores0.inst_cache_retries            0                       # Number of instruction cache retries
system.gpu.shader_cores0.inst_counts::0             0                       # Inst counts: 1: ALU, 2: MAD, 3: CTRL, 4: SFU, 5: MEM, 6: TEX, 7: NOP
system.gpu.shader_cores0.inst_counts::1         13056                       # Inst counts: 1: ALU, 2: MAD, 3: CTRL, 4: SFU, 5: MEM, 6: TEX, 7: NOP
system.gpu.shader_cores0.inst_counts::2           544                       # Inst counts: 1: ALU, 2: MAD, 3: CTRL, 4: SFU, 5: MEM, 6: TEX, 7: NOP
system.gpu.shader_cores0.inst_counts::3           752                       # Inst counts: 1: ALU, 2: MAD, 3: CTRL, 4: SFU, 5: MEM, 6: TEX, 7: NOP
system.gpu.shader_cores0.inst_counts::4             0                       # Inst counts: 1: ALU, 2: MAD, 3: CTRL, 4: SFU, 5: MEM, 6: TEX, 7: NOP
system.gpu.shader_cores0.inst_counts::5          3696                       # Inst counts: 1: ALU, 2: MAD, 3: CTRL, 4: SFU, 5: MEM, 6: TEX, 7: NOP
system.gpu.shader_cores0.inst_counts::6             0                       # Inst counts: 1: ALU, 2: MAD, 3: CTRL, 4: SFU, 5: MEM, 6: TEX, 7: NOP
system.gpu.shader_cores0.inst_counts::7             0                       # Inst counts: 1: ALU, 2: MAD, 3: CTRL, 4: SFU, 5: MEM, 6: TEX, 7: NOP
system.gpu.shader_cores0.activeCycles            1200                       # Number of cycles this shader was executing a CTA
system.gpu.shader_cores0.notStalledCycles          426                       # Number of cycles this shader was actually executing at least one instance
system.gpu.shader_cores0.instInstances          18048                       # Total instructions executed by all PEs in the core
system.gpu.shader_cores0.instPerCycle       15.040000                       # Instruction instances per cycle
system.gpu.shader_cores0.kernels_completed            1                       # Number of kernels completed
system.gpu.shader_cores0.lsq.data_tlb.hits            0                       # Number of hits in this TLB
system.gpu.shader_cores0.lsq.data_tlb.misses            0                       # Number of misses in this TLB
system.gpu.shader_cores0.lsq.data_tlb.hitRate          nan                       # Hit rate for this TLB
system.gpu.shader_cores0.lsq.warpInstBufActive::samples      1176067                       # Histogram of number of active warp inst buffers at a given time
system.gpu.shader_cores0.lsq.warpInstBufActive::mean     2.091130                       # Histogram of number of active warp inst buffers at a given time
system.gpu.shader_cores0.lsq.warpInstBufActive::gmean          nan                       # Histogram of number of active warp inst buffers at a given time
system.gpu.shader_cores0.lsq.warpInstBufActive::stdev     3.306199                       # Histogram of number of active warp inst buffers at a given time
system.gpu.shader_cores0.lsq.warpInstBufActive::0       674488     57.35%     57.35% # Histogram of number of active warp inst buffers at a given time
system.gpu.shader_cores0.lsq.warpInstBufActive::1       121465     10.33%     67.68% # Histogram of number of active warp inst buffers at a given time
system.gpu.shader_cores0.lsq.warpInstBufActive::2        50015      4.25%     71.93% # Histogram of number of active warp inst buffers at a given time
system.gpu.shader_cores0.lsq.warpInstBufActive::3        30009      2.55%     74.48% # Histogram of number of active warp inst buffers at a given time
system.gpu.shader_cores0.lsq.warpInstBufActive::4        45728      3.89%     78.37% # Histogram of number of active warp inst buffers at a given time
system.gpu.shader_cores0.lsq.warpInstBufActive::5        28580      2.43%     80.80% # Histogram of number of active warp inst buffers at a given time
system.gpu.shader_cores0.lsq.warpInstBufActive::6        55731      4.74%     85.54% # Histogram of number of active warp inst buffers at a given time
system.gpu.shader_cores0.lsq.warpInstBufActive::7        74308      6.32%     91.86% # Histogram of number of active warp inst buffers at a given time
system.gpu.shader_cores0.lsq.warpInstBufActive::8        41441      3.52%     95.38% # Histogram of number of active warp inst buffers at a given time
system.gpu.shader_cores0.lsq.warpInstBufActive::9        11432      0.97%     96.35% # Histogram of number of active warp inst buffers at a given time
system.gpu.shader_cores0.lsq.warpInstBufActive::10         4287      0.36%     96.72% # Histogram of number of active warp inst buffers at a given time
system.gpu.shader_cores0.lsq.warpInstBufActive::11        11432      0.97%     97.69% # Histogram of number of active warp inst buffers at a given time
system.gpu.shader_cores0.lsq.warpInstBufActive::12         4287      0.36%     98.06% # Histogram of number of active warp inst buffers at a given time
system.gpu.shader_cores0.lsq.warpInstBufActive::13        14290      1.22%     99.27% # Histogram of number of active warp inst buffers at a given time
system.gpu.shader_cores0.lsq.warpInstBufActive::14         2858      0.24%     99.51% # Histogram of number of active warp inst buffers at a given time
system.gpu.shader_cores0.lsq.warpInstBufActive::15         4287      0.36%     99.88% # Histogram of number of active warp inst buffers at a given time
system.gpu.shader_cores0.lsq.warpInstBufActive::16         1429      0.12%    100.00% # Histogram of number of active warp inst buffers at a given time
system.gpu.shader_cores0.lsq.warpInstBufActive::17            0      0.00%    100.00% # Histogram of number of active warp inst buffers at a given time
system.gpu.shader_cores0.lsq.warpInstBufActive::18            0      0.00%    100.00% # Histogram of number of active warp inst buffers at a given time
system.gpu.shader_cores0.lsq.warpInstBufActive::19            0      0.00%    100.00% # Histogram of number of active warp inst buffers at a given time
system.gpu.shader_cores0.lsq.warpInstBufActive::20            0      0.00%    100.00% # Histogram of number of active warp inst buffers at a given time
system.gpu.shader_cores0.lsq.warpInstBufActive::21            0      0.00%    100.00% # Histogram of number of active warp inst buffers at a given time
system.gpu.shader_cores0.lsq.warpInstBufActive::22            0      0.00%    100.00% # Histogram of number of active warp inst buffers at a given time
system.gpu.shader_cores0.lsq.warpInstBufActive::23            0      0.00%    100.00% # Histogram of number of active warp inst buffers at a given time
system.gpu.shader_cores0.lsq.warpInstBufActive::24            0      0.00%    100.00% # Histogram of number of active warp inst buffers at a given time
system.gpu.shader_cores0.lsq.warpInstBufActive::25            0      0.00%    100.00% # Histogram of number of active warp inst buffers at a given time
system.gpu.shader_cores0.lsq.warpInstBufActive::26            0      0.00%    100.00% # Histogram of number of active warp inst buffers at a given time
system.gpu.shader_cores0.lsq.warpInstBufActive::27            0      0.00%    100.00% # Histogram of number of active warp inst buffers at a given time
system.gpu.shader_cores0.lsq.warpInstBufActive::28            0      0.00%    100.00% # Histogram of number of active warp inst buffers at a given time
system.gpu.shader_cores0.lsq.warpInstBufActive::29            0      0.00%    100.00% # Histogram of number of active warp inst buffers at a given time
system.gpu.shader_cores0.lsq.warpInstBufActive::30            0      0.00%    100.00% # Histogram of number of active warp inst buffers at a given time
system.gpu.shader_cores0.lsq.warpInstBufActive::31            0      0.00%    100.00% # Histogram of number of active warp inst buffers at a given time
system.gpu.shader_cores0.lsq.warpInstBufActive::32            0      0.00%    100.00% # Histogram of number of active warp inst buffers at a given time
system.gpu.shader_cores0.lsq.warpInstBufActive::33            0      0.00%    100.00% # Histogram of number of active warp inst buffers at a given time
system.gpu.shader_cores0.lsq.warpInstBufActive::34            0      0.00%    100.00% # Histogram of number of active warp inst buffers at a given time
system.gpu.shader_cores0.lsq.warpInstBufActive::35            0      0.00%    100.00% # Histogram of number of active warp inst buffers at a given time
system.gpu.shader_cores0.lsq.warpInstBufActive::36            0      0.00%    100.00% # Histogram of number of active warp inst buffers at a given time
system.gpu.shader_cores0.lsq.warpInstBufActive::37            0      0.00%    100.00% # Histogram of number of active warp inst buffers at a given time
system.gpu.shader_cores0.lsq.warpInstBufActive::38            0      0.00%    100.00% # Histogram of number of active warp inst buffers at a given time
system.gpu.shader_cores0.lsq.warpInstBufActive::39            0      0.00%    100.00% # Histogram of number of active warp inst buffers at a given time
system.gpu.shader_cores0.lsq.warpInstBufActive::40            0      0.00%    100.00% # Histogram of number of active warp inst buffers at a given time
system.gpu.shader_cores0.lsq.warpInstBufActive::41            0      0.00%    100.00% # Histogram of number of active warp inst buffers at a given time
system.gpu.shader_cores0.lsq.warpInstBufActive::42            0      0.00%    100.00% # Histogram of number of active warp inst buffers at a given time
system.gpu.shader_cores0.lsq.warpInstBufActive::43            0      0.00%    100.00% # Histogram of number of active warp inst buffers at a given time
system.gpu.shader_cores0.lsq.warpInstBufActive::44            0      0.00%    100.00% # Histogram of number of active warp inst buffers at a given time
system.gpu.shader_cores0.lsq.warpInstBufActive::45            0      0.00%    100.00% # Histogram of number of active warp inst buffers at a given time
system.gpu.shader_cores0.lsq.warpInstBufActive::46            0      0.00%    100.00% # Histogram of number of active warp inst buffers at a given time
system.gpu.shader_cores0.lsq.warpInstBufActive::47            0      0.00%    100.00% # Histogram of number of active warp inst buffers at a given time
system.gpu.shader_cores0.lsq.warpInstBufActive::48            0      0.00%    100.00% # Histogram of number of active warp inst buffers at a given time
system.gpu.shader_cores0.lsq.warpInstBufActive::49            0      0.00%    100.00% # Histogram of number of active warp inst buffers at a given time
system.gpu.shader_cores0.lsq.warpInstBufActive::50            0      0.00%    100.00% # Histogram of number of active warp inst buffers at a given time
system.gpu.shader_cores0.lsq.warpInstBufActive::51            0      0.00%    100.00% # Histogram of number of active warp inst buffers at a given time
[...]
system.ruby.L1Cache_Controller.Load::total       167383                      
system.ruby.L1Cache_Controller.Ifetch    |     1044963    100.00%    100.00% |           0      0.00%    100.00% |           6      0.00%    100.00% |           6      0.00%    100.00% |           0      0.00%    100.00% |           0      0.00%    100.00%
system.ruby.L1Cache_Controller.Ifetch::total      1044975                      
system.ruby.L1Cache_Controller.Store     |      125204     99.92%     99.92% |           0      0.00%     99.92% |          50      0.04%     99.96% |           8      0.01%     99.96% |           0      0.00%     99.96% |          44      0.04%    100.00%
system.ruby.L1Cache_Controller.Store::total       125306                      
system.ruby.L1Cache_Controller.Inv       |          11     26.19%     26.19% |           0      0.00%     26.19% |           3      7.14%     33.33% |          10     23.81%     57.14% |           0      0.00%     57.14% |          18     42.86%    100.00%
system.ruby.L1Cache_Controller.Inv::total           42                      
system.ruby.L1Cache_Controller.L1_Replacement |        5467     97.92%     97.92% |           0      0.00%     97.92% |           0      0.00%     97.92% |           0      0.00%     97.92% |           0      0.00%     97.92% |         116      2.08%    100.00%
system.ruby.L1Cache_Controller.L1_Replacement::total         5583                      
system.ruby.L1Cache_Controller.Fwd_GETX  |          10     71.43%     71.43% |           0      0.00%     71.43% |           2     14.29%     85.71% |           2     14.29%    100.00% |           0      0.00%    100.00% |           0      0.00%    100.00%
system.ruby.L1Cache_Controller.Fwd_GETX::total           14                      
system.ruby.L1Cache_Controller.Fwd_GETS  |          29     43.94%     43.94% |           0      0.00%     43.94% |          11     16.67%     60.61% |           1      1.52%     62.12% |           0      0.00%     62.12% |          25     37.88%    100.00%
system.ruby.L1Cache_Controller.Fwd_GETS::total           66                      
system.ruby.L1Cache_Controller.Fwd_GET_INSTR |           1    100.00%    100.00% |           0      0.00%    100.00% |           0      0.00%    100.00% |           0      0.00%    100.00% |           0      0.00%    100.00% |           0      0.00%    100.00%
system.ruby.L1Cache_Controller.Fwd_GET_INSTR::total            1                      
system.ruby.L1Cache_Controller.Data      |           0      0.00%      0.00% |           0      0.00%      0.00% |           0      0.00%      0.00% |           0      0.00%      0.00% |           0      0.00%      0.00% |           7    100.00%    100.00%
system.ruby.L1Cache_Controller.Data::total            7                      
system.ruby.L1Cache_Controller.Data_Exclusive |         823     98.21%     98.21% |           0      0.00%     98.21% |          13      1.55%     99.76% |           2      0.24%    100.00% |           0      0.00%    100.00% |           0      0.00%    100.00%
system.ruby.L1Cache_Controller.Data_Exclusive::total          838                      
system.ruby.L1Cache_Controller.DataS_fromL1 |          14     20.90%     20.90% |           0      0.00%     20.90% |           9     13.43%     34.33% |          10     14.93%     49.25% |           0      0.00%     49.25% |          34     50.75%    100.00%
system.ruby.L1Cache_Controller.DataS_fromL1::total           67                      
system.ruby.L1Cache_Controller.Data_all_Acks |        5108     98.84%     98.84% |           0      0.00%     98.84% |           6      0.12%     98.96% |           6      0.12%     99.07% |           0      0.00%     99.07% |          48      0.93%    100.00%
system.ruby.L1Cache_Controller.Data_all_Acks::total         5168                      
system.ruby.L1Cache_Controller.Ack       |          17     48.57%     48.57% |           0      0.00%     48.57% |           8     22.86%     71.43% |           0      0.00%     71.43% |           0      0.00%     71.43% |          10     28.57%    100.00%
system.ruby.L1Cache_Controller.Ack::total           35                      
system.ruby.L1Cache_Controller.Ack_all   |          16     51.61%     51.61% |           0      0.00%     51.61% |           8     25.81%     77.42% |           0      0.00%     77.42% |           0      0.00%     77.42% |           7     22.58%    100.00%
system.ruby.L1Cache_Controller.Ack_all::total           31                      
system.ruby.L1Cache_Controller.WB_Ack    |         784     97.63%     97.63% |           0      0.00%     97.63% |           0      0.00%     97.63% |           0      0.00%     97.63% |           0      0.00%     97.63% |          19      2.37%    100.00%
system.ruby.L1Cache_Controller.WB_Ack::total          803                      
system.ruby.L1Cache_Controller.NP.Load   |         819     91.82%     91.82% |           0      0.00%     91.82% |          22      2.47%     94.28% |          11      1.23%     95.52% |           0      0.00%     95.52% |          40      4.48%    100.00%
system.ruby.L1Cache_Controller.NP.Load::total          892                      
system.ruby.L1Cache_Controller.NP.Ifetch |        4933     99.76%     99.76% |           0      0.00%     99.76% |           6      0.12%     99.88% |           6      0.12%    100.00% |           0      0.00%    100.00% |           0      0.00%    100.00%
system.ruby.L1Cache_Controller.NP.Ifetch::total         4945                      
system.ruby.L1Cache_Controller.NP.Store  |         173     79.36%     79.36% |           0      0.00%     79.36% |           0      0.00%     79.36% |           1      0.46%     79.82% |           0      0.00%     79.82% |          44     20.18%    100.00%
system.ruby.L1Cache_Controller.NP.Store::total          218                      
system.ruby.L1Cache_Controller.NP.Inv    |           0      0.00%      0.00% |           0      0.00%      0.00% |           0      0.00%      0.00% |           0      0.00%      0.00% |           0      0.00%      0.00% |           6    100.00%    100.00%
system.ruby.L1Cache_Controller.NP.Inv::total            6                      
system.ruby.L1Cache_Controller.I.Load    |          18     78.26%     78.26% |           0      0.00%     78.26% |           0      0.00%     78.26% |           0      0.00%     78.26% |           0      0.00%     78.26% |           5     21.74%    100.00%
system.ruby.L1Cache_Controller.I.Load::total           23                      
system.ruby.L1Cache_Controller.I.Store   |           2    100.00%    100.00% |           0      0.00%    100.00% |           0      0.00%    100.00% |           0      0.00%    100.00% |           0      0.00%    100.00% |           0      0.00%    100.00%
system.ruby.L1Cache_Controller.I.Store::total            2                      
system.ruby.L1Cache_Controller.I.L1_Replacement |           0      0.00%      0.00% |           0      0.00%      0.00% |           0      0.00%      0.00% |           0      0.00%      0.00% |           0      0.00%      0.00% |           6    100.00%    100.00%
system.ruby.L1Cache_Controller.I.L1_Replacement::total            6                      
system.ruby.L1Cache_Controller.S.Load    |         302     90.42%     90.42% |           0      0.00%     90.42% |          20      5.99%     96.41% |          12      3.59%    100.00% |           0      0.00%    100.00% |           0      0.00%    100.00%
system.ruby.L1Cache_Controller.S.Load::total          334                      
system.ruby.L1Cache_Controller.S.Ifetch  |     1040028    100.00%    100.00% |           0      0.00%    100.00% |           0      0.00%    100.00% |           0      0.00%    100.00% |           0      0.00%    100.00% |           0      0.00%    100.00%
system.ruby.L1Cache_Controller.S.Ifetch::total      1040028                      
system.ruby.L1Cache_Controller.S.Store   |          16     66.67%     66.67% |           0      0.00%     66.67% |           8     33.33%    100.00% |           0      0.00%    100.00% |           0      0.00%    100.00% |           0      0.00%    100.00%
system.ruby.L1Cache_Controller.S.Store::total           24                      
system.ruby.L1Cache_Controller.S.Inv     |          11     30.56%     30.56% |           0      0.00%     30.56% |           3      8.33%     38.89% |          10     27.78%     66.67% |           0      0.00%     66.67% |          12     33.33%    100.00%
system.ruby.L1Cache_Controller.S.Inv::total           36                      
system.ruby.L1Cache_Controller.S.L1_Replacement |        4683     98.92%     98.92% |           0      0.00%     98.92% |           0      0.00%     98.92% |           0      0.00%     98.92% |           0      0.00%     98.92% |          51      1.08%    100.00%
system.ruby.L1Cache_Controller.S.L1_Replacement::total         4734                      
system.ruby.L1Cache_Controller.E.Load    |       18443     99.78%     99.78% |           0      0.00%     99.78% |          40      0.22%     99.99% |           1      0.01%    100.00% |           0      0.00%    100.00% |           0      0.00%    100.00%
system.ruby.L1Cache_Controller.E.Load::total        18484                      
system.ruby.L1Cache_Controller.E.Store   |          36     75.00%     75.00% |           0      0.00%     75.00% |          12     25.00%    100.00% |           0      0.00%    100.00% |           0      0.00%    100.00% |           0      0.00%    100.00%
system.ruby.L1Cache_Controller.E.Store::total           48                      
system.ruby.L1Cache_Controller.E.L1_Replacement |         732    100.00%    100.00% |           0      0.00%    100.00% |           0      0.00%    100.00% |           0      0.00%    100.00% |           0      0.00%    100.00% |           0      0.00%    100.00%
system.ruby.L1Cache_Controller.E.L1_Replacement::total          732                      
system.ruby.L1Cache_Controller.E.Fwd_GETX |           1     33.33%     33.33% |           0      0.00%     33.33% |           0      0.00%     33.33% |           2     66.67%    100.00% |           0      0.00%    100.00% |           0      0.00%    100.00%
system.ruby.L1Cache_Controller.E.Fwd_GETX::total            3                      
system.ruby.L1Cache_Controller.E.Fwd_GETS |           0      0.00%      0.00% |           0      0.00%      0.00% |           1    100.00%    100.00% |           0      0.00%    100.00% |           0      0.00%    100.00% |           0      0.00%    100.00%
system.ruby.L1Cache_Controller.E.Fwd_GETS::total            1                      
system.ruby.L1Cache_Controller.E.Fwd_GET_INSTR |           1    100.00%    100.00% |           0      0.00%    100.00% |           0      0.00%    100.00% |           0      0.00%    100.00% |           0      0.00%    100.00% |           0      0.00%    100.00%
system.ruby.L1Cache_Controller.E.Fwd_GET_INSTR::total            1                      
system.ruby.L1Cache_Controller.M.Load    |      147647    100.00%    100.00% |           0      0.00%    100.00% |           3      0.00%    100.00% |           0      0.00%    100.00% |           0      0.00%    100.00% |           0      0.00%    100.00%
system.ruby.L1Cache_Controller.M.Load::total       147650                      
system.ruby.L1Cache_Controller.M.Store   |      124977     99.97%     99.97% |           0      0.00%     99.97% |          30      0.02%     99.99% |           7      0.01%    100.00% |           0      0.00%    100.00% |           0      0.00%    100.00%
system.ruby.L1Cache_Controller.M.Store::total       125014                      
system.ruby.L1Cache_Controller.M.L1_Replacement |          52     73.24%     73.24% |           0      0.00%     73.24% |           0      0.00%     73.24% |           0      0.00%     73.24% |           0      0.00%     73.24% |          19     26.76%    100.00%
system.ruby.L1Cache_Controller.M.L1_Replacement::total           71                      
system.ruby.L1Cache_Controller.M.Fwd_GETX |           9     81.82%     81.82% |           0      0.00%     81.82% |           2     18.18%    100.00% |           0      0.00%    100.00% |           0      0.00%    100.00% |           0      0.00%    100.00%
system.ruby.L1Cache_Controller.M.Fwd_GETX::total           11                      
system.ruby.L1Cache_Controller.M.Fwd_GETS |          29     44.62%     44.62% |           0      0.00%     44.62% |          10     15.38%     60.00% |           1      1.54%     61.54% |           0      0.00%     61.54% |          25     38.46%    100.00%
system.ruby.L1Cache_Controller.M.Fwd_GETS::total           65                      
system.ruby.L1Cache_Controller.IS.L1_Replacement |           0      0.00%      0.00% |           0      0.00%      0.00% |           0      0.00%      0.00% |           0      0.00%      0.00% |           0      0.00%      0.00% |          35    100.00%    100.00%
system.ruby.L1Cache_Controller.IS.L1_Replacement::total           35                      
system.ruby.L1Cache_Controller.IS.Data_Exclusive |         823     98.21%     98.21% |           0      0.00%     98.21% |          13      1.55%     99.76% |           2      0.24%    100.00% |           0      0.00%    100.00% |           0      0.00%    100.00%
system.ruby.L1Cache_Controller.IS.Data_Exclusive::total          838                      
system.ruby.L1Cache_Controller.IS.DataS_fromL1 |          14     20.90%     20.90% |           0      0.00%     20.90% |           9     13.43%     34.33% |          10     14.93%     49.25% |           0      0.00%     49.25% |          34     50.75%    100.00%
system.ruby.L1Cache_Controller.IS.DataS_fromL1::total           67                      
system.ruby.L1Cache_Controller.IS.Data_all_Acks |        4933     99.56%     99.56% |           0      0.00%     99.56% |           6      0.12%     99.68% |           5      0.10%     99.78% |           0      0.00%     99.78% |          11      0.22%    100.00%
system.ruby.L1Cache_Controller.IS.Data_all_Acks::total         4955                      
system.ruby.L1Cache_Controller.IM.L1_Replacement |           0      0.00%      0.00% |           0      0.00%      0.00% |           0      0.00%      0.00% |           0      0.00%      0.00% |           0      0.00%      0.00% |           4    100.00%    100.00%
system.ruby.L1Cache_Controller.IM.L1_Replacement::total            4                      
system.ruby.L1Cache_Controller.IM.Data   |           0      0.00%      0.00% |           0      0.00%      0.00% |           0      0.00%      0.00% |           0      0.00%      0.00% |           0      0.00%      0.00% |           7    100.00%    100.00%
system.ruby.L1Cache_Controller.IM.Data::total            7                      
system.ruby.L1Cache_Controller.IM.Data_all_Acks |         175     82.16%     82.16% |           0      0.00%     82.16% |           0      0.00%     82.16% |           1      0.47%     82.63% |           0      0.00%     82.63% |          37     17.37%    100.00%
system.ruby.L1Cache_Controller.IM.Data_all_Acks::total          213                      
system.ruby.L1Cache_Controller.IM.Ack    |           0      0.00%      0.00% |           0      0.00%      0.00% |           0      0.00%      0.00% |           0      0.00%      0.00% |           0      0.00%      0.00% |          10    100.00%    100.00%
system.ruby.L1Cache_Controller.IM.Ack::total           10                      
system.ruby.L1Cache_Controller.SM.L1_Replacement |           0      0.00%      0.00% |           0      0.00%      0.00% |           0      0.00%      0.00% |           0      0.00%      0.00% |           0      0.00%      0.00% |           1    100.00%    100.00%
system.ruby.L1Cache_Controller.SM.L1_Replacement::total            1                      
system.ruby.L1Cache_Controller.SM.Ack    |          17     68.00%     68.00% |           0      0.00%     68.00% |           8     32.00%    100.00% |           0      0.00%    100.00% |           0      0.00%    100.00% |           0      0.00%    100.00%
system.ruby.L1Cache_Controller.SM.Ack::total           25                      
system.ruby.L1Cache_Controller.SM.Ack_all |          16     51.61%     51.61% |           0      0.00%     51.61% |           8     25.81%     77.42% |           0      0.00%     77.42% |           0      0.00%     77.42% |           7     22.58%    100.00%
system.ruby.L1Cache_Controller.SM.Ack_all::total           31                      
system.ruby.L1Cache_Controller.M_I.Ifetch |           2    100.00%    100.00% |           0      0.00%    100.00% |           0      0.00%    100.00% |           0      0.00%    100.00% |           0      0.00%    100.00% |           0      0.00%    100.00%
system.ruby.L1Cache_Controller.M_I.Ifetch::total            2                      
system.ruby.L1Cache_Controller.M_I.WB_Ack |         784     97.63%     97.63% |           0      0.00%     97.63% |           0      0.00%     97.63% |           0      0.00%     97.63% |           0      0.00%     97.63% |          19      2.37%    100.00%
system.ruby.L1Cache_Controller.M_I.WB_Ack::total          803                      
system.ruby.L2Cache_Controller.L1_GET_INSTR         4945      0.00%      0.00%
system.ruby.L2Cache_Controller.L1_GETS            915      0.00%      0.00%
system.ruby.L2Cache_Controller.L1_GETX            220      0.00%      0.00%
system.ruby.L2Cache_Controller.L1_UPGRADE           24      0.00%      0.00%
system.ruby.L2Cache_Controller.L1_PUTX            803      0.00%      0.00%
system.ruby.L2Cache_Controller.Mem_Data           812      0.00%      0.00%
system.ruby.L2Cache_Controller.WB_Data             65      0.00%      0.00%
system.ruby.L2Cache_Controller.WB_Data_clean            2      0.00%      0.00%
system.ruby.L2Cache_Controller.Unblock             67      0.00%      0.00%
system.ruby.L2Cache_Controller.Exclusive_Unblock         1082      0.00%      0.00%
system.ruby.L2Cache_Controller.NP.L1_GET_INSTR          519      0.00%      0.00%
system.ruby.L2Cache_Controller.NP.L1_GETS          105      0.00%      0.00%
system.ruby.L2Cache_Controller.NP.L1_GETX          188      0.00%      0.00%
system.ruby.L2Cache_Controller.SS.L1_GET_INSTR         4422      0.00%      0.00%
system.ruby.L2Cache_Controller.SS.L1_GETS           11      0.00%      0.00%
system.ruby.L2Cache_Controller.SS.L1_GETX           17      0.00%      0.00%
system.ruby.L2Cache_Controller.SS.L1_UPGRADE           24      0.00%      0.00%
system.ruby.L2Cache_Controller.M.L1_GET_INSTR            3      0.00%      0.00%
system.ruby.L2Cache_Controller.M.L1_GETS          733      0.00%      0.00%
system.ruby.L2Cache_Controller.M.L1_GETX            1      0.00%      0.00%
system.ruby.L2Cache_Controller.MT.L1_GET_INSTR            1      0.00%      0.00%
system.ruby.L2Cache_Controller.MT.L1_GETS           66      0.00%      0.00%
system.ruby.L2Cache_Controller.MT.L1_GETX           14      0.00%      0.00%
system.ruby.L2Cache_Controller.MT.L1_PUTX          803      0.00%      0.00%
system.ruby.L2Cache_Controller.ISS.Mem_Data          105      0.00%      0.00%
system.ruby.L2Cache_Controller.IS.Mem_Data          519      0.00%      0.00%
system.ruby.L2Cache_Controller.IM.Mem_Data          188      0.00%      0.00%
system.ruby.L2Cache_Controller.SS_MB.Exclusive_Unblock           41      0.00%      0.00%
system.ruby.L2Cache_Controller.MT_MB.Exclusive_Unblock         1041      0.00%      0.00%
system.ruby.L2Cache_Controller.MT_IIB.WB_Data            5      0.00%      0.00%
system.ruby.L2Cache_Controller.MT_IIB.Unblock           62      0.00%      0.00%
system.ruby.L2Cache_Controller.MT_IB.WB_Data           60      0.00%      0.00%
system.ruby.L2Cache_Controller.MT_IB.WB_Data_clean            2      0.00%      0.00%
system.ruby.L2Cache_Controller.MT_SB.Unblock            5      0.00%      0.00%

---------- End Simulation Statistics   ----------
