
---------- Begin Simulation Statistics ----------
sim_seconds                                  0.145815                       # Number of seconds simulated
sim_ticks                                145815060000                       # Number of ticks simulated
final_tick                               145822263500                       # Number of ticks from beginning of simulation (restored from checkpoints and never reset)
sim_freq                                 1000000000000                       # Frequency of simulated ticks
host_inst_rate                                  22799                       # Simulator instruction rate (inst/s)
host_op_rate                                    38072                       # Simulator op (including micro ops) rate (op/s)
host_tick_rate                               64710969                       # Simulator tick rate (ticks/s)
host_mem_usage                                1680600                       # Number of bytes of host memory used
host_seconds                                  2253.33                       # Real time elapsed on the host
sim_insts                                    51374534                       # Number of instructions simulated
sim_ops                                      85788684                       # Number of ops (including micro ops) simulated
system.voltage_domain.voltage                       1                       # Voltage in Volts
system.clk_domain.clock                          1000                       # Clock period in ticks
system.mem_ctrls.bytes_read::ruby.dir_cntrl0    276343040                       # Number of bytes read from this memory
system.mem_ctrls.bytes_read::total          276343040                       # Number of bytes read from this memory
system.mem_ctrls.bytes_written::ruby.dir_cntrl0    133752960                       # Number of bytes written to this memory
system.mem_ctrls.bytes_written::total       133752960                       # Number of bytes written to this memory
system.mem_ctrls.num_reads::ruby.dir_cntrl0      2158930                       # Number of read requests responded to by this memory
system.mem_ctrls.num_reads::total             2158930                       # Number of read requests responded to by this memory
system.mem_ctrls.num_writes::ruby.dir_cntrl0      1044945                       # Number of write requests responded to by this memory
system.mem_ctrls.num_writes::total            1044945                       # Number of write requests responded to by this memory
system.mem_ctrls.bw_read::ruby.dir_cntrl0   1895161172                       # Total read bandwidth from this memory (bytes/s)
system.mem_ctrls.bw_read::total            1895161172                       # Total read bandwidth from this memory (bytes/s)
system.mem_ctrls.bw_write::ruby.dir_cntrl0    917278092                       # Write bandwidth from this memory (bytes/s)
system.mem_ctrls.bw_write::total            917278092                       # Write bandwidth from this memory (bytes/s)
system.mem_ctrls.bw_total::ruby.dir_cntrl0   2812439264                       # Total bandwidth to/from this memory (bytes/s)
system.mem_ctrls.bw_total::total           2812439264                       # Total bandwidth to/from this memory (bytes/s)
system.mem_ctrls.readReqs                     2158930                       # Number of read requests accepted
system.mem_ctrls.writeReqs                    1044945                       # Number of write requests accepted
system.mem_ctrls.readBursts                   4317860                       # Number of DRAM read bursts, including those serviced by the write queue
system.mem_ctrls.writeBursts                  2089890                       # Number of DRAM write bursts, including those merged in the write queue
system.mem_ctrls.bytesReadDRAM              276156864                       # Total number of bytes read from DRAM
system.mem_ctrls.bytesReadWrQ                  186176                       # Total number of bytes read from write queue
system.mem_ctrls.bytesWritten               133749760                       # Total number of bytes written to DRAM
system.mem_ctrls.bytesReadSys               276343040                       # Total read bytes from the system interface side
system.mem_ctrls.bytesWrittenSys            133752960                       # Total written bytes from the system interface side
system.mem_ctrls.servicedByWrQ                   2909                       # Number of DRAM read bursts serviced by the write queue
system.mem_ctrls.mergedWrBursts                    23                       # Number of DRAM write bursts merged with an existing one
system.mem_ctrls.neitherReadNorWriteReqs            0                       # Number of requests that are neither read nor write
system.mem_ctrls.perBankRdBursts::0            267426                       # Per bank write bursts
system.mem_ctrls.perBankRdBursts::1            267263                       # Per bank write bursts
system.mem_ctrls.perBankRdBursts::2            271007                       # Per bank write bursts
system.mem_ctrls.perBankRdBursts::3            270272                       # Per bank write bursts
system.mem_ctrls.perBankRdBursts::4            266536                       # Per bank write bursts
system.mem_ctrls.perBankRdBursts::5            266474                       # Per bank write bursts
system.mem_ctrls.perBankRdBursts::6            264539                       # Per bank write bursts
system.mem_ctrls.perBankRdBursts::7            253961                       # Per bank write bursts
system.mem_ctrls.perBankRdBursts::8            264144                       # Per bank write bursts
system.mem_ctrls.perBankRdBursts::9            258277                       # Per bank write bursts
system.mem_ctrls.perBankRdBursts::10           294289                       # Per bank write bursts
system.mem_ctrls.perBankRdBursts::11           304048                       # Per bank write bursts
system.mem_ctrls.perBankRdBursts::12           266695                       # Per bank write bursts
system.mem_ctrls.perBankRdBursts::13           266595                       # Per bank write bursts
system.mem_ctrls.perBankRdBursts::14           266564                       # Per bank write bursts
system.mem_ctrls.perBankRdBursts::15           266861                       # Per bank write bursts
system.mem_ctrls.perBankWrBursts::0            131586                       # Per bank write bursts
system.mem_ctrls.perBankWrBursts::1            131807                       # Per bank write bursts
system.mem_ctrls.perBankWrBursts::2            131786                       # Per bank write bursts
system.mem_ctrls.perBankWrBursts::3            131844                       # Per bank write bursts
system.mem_ctrls.perBankWrBursts::4            131550                       # Per bank write bursts
system.mem_ctrls.perBankWrBursts::5            131596                       # Per bank write bursts
system.mem_ctrls.perBankWrBursts::6            131584                       # Per bank write bursts
system.mem_ctrls.perBankWrBursts::7            131548                       # Per bank write bursts
system.mem_ctrls.perBankWrBursts::8            131592                       # Per bank write bursts
system.mem_ctrls.perBankWrBursts::9            123462                       # Per bank write bursts
system.mem_ctrls.perBankWrBursts::10           122892                       # Per bank write bursts
system.mem_ctrls.perBankWrBursts::11           131990                       # Per bank write bursts
system.mem_ctrls.perBankWrBursts::12           131706                       # Per bank write bursts
system.mem_ctrls.perBankWrBursts::13           131618                       # Per bank write bursts
system.mem_ctrls.perBankWrBursts::14           131616                       # Per bank write bursts
system.mem_ctrls.perBankWrBursts::15           131663                       # Per bank write bursts
system.mem_ctrls.numRdRetry                   1348403                       # Number of times read queue was full causing retry
system.mem_ctrls.numWrRetry                     11606                       # Number of times write queue was full causing retry
system.mem_ctrls.totGap                  145815240500                       # Total gap between requests
system.mem_ctrls.readPktSize::0                     0                       # Read request sizes (log2)
system.mem_ctrls.readPktSize::1                     0                       # Read request sizes (log2)
system.mem_ctrls.readPktSize::2                     0                       # Read request sizes (log2)
system.mem_ctrls.readPktSize::3                     0                       # Read request sizes (log2)
system.mem_ctrls.readPktSize::4                     0                       # Read request sizes (log2)
system.mem_ctrls.readPktSize::5                     0                       # Read request sizes (log2)
system.mem_ctrls.readPktSize::6               4317860                       # Read request sizes (log2)
system.mem_ctrls.writePktSize::0                    0                       # Write request sizes (log2)
system.mem_ctrls.writePktSize::1                    0                       # Write request sizes (log2)
system.mem_ctrls.writePktSize::2                    0                       # Write request sizes (log2)
system.mem_ctrls.writePktSize::3                    0                       # Write request sizes (log2)
system.mem_ctrls.writePktSize::4                    0                       # Write request sizes (log2)
system.mem_ctrls.writePktSize::5                    0                       # Write request sizes (log2)
system.mem_ctrls.writePktSize::6              2089890                       # Write request sizes (log2)
system.mem_ctrls.rdQLenPdf::0                  334344                       # What read queue length does an incoming req see
system.mem_ctrls.rdQLenPdf::1                  344395                       # What read queue length does an incoming req see
system.mem_ctrls.rdQLenPdf::2                   83890                       # What read queue length does an incoming req see
system.mem_ctrls.rdQLenPdf::3                  108391                       # What read queue length does an incoming req see
system.mem_ctrls.rdQLenPdf::4                  168380                       # What read queue length does an incoming req see
system.mem_ctrls.rdQLenPdf::5                  192459                       # What read queue length does an incoming req see
system.mem_ctrls.rdQLenPdf::6                  209386                       # What read queue length does an incoming req see
system.mem_ctrls.rdQLenPdf::7                  198419                       # What read queue length does an incoming req see
system.mem_ctrls.rdQLenPdf::8                  156795                       # What read queue length does an incoming req see
system.mem_ctrls.rdQLenPdf::9                  136189                       # What read queue length does an incoming req see
system.mem_ctrls.rdQLenPdf::10                 116964                       # What read queue length does an incoming req see
system.mem_ctrls.rdQLenPdf::11                 108175                       # What read queue length does an incoming req see
system.mem_ctrls.rdQLenPdf::12                  89475                       # What read queue length does an incoming req see
system.mem_ctrls.rdQLenPdf::13                  79267                       # What read queue length does an incoming req see
system.mem_ctrls.rdQLenPdf::14                  54638                       # What read queue length does an incoming req see
system.mem_ctrls.rdQLenPdf::15                  55554                       # What read queue length does an incoming req see
system.mem_ctrls.rdQLenPdf::16                  26418                       # What read queue length does an incoming req see
system.mem_ctrls.rdQLenPdf::17                  29364                       # What read queue length does an incoming req see
system.mem_ctrls.rdQLenPdf::18                  31620                       # What read queue length does an incoming req see
system.mem_ctrls.rdQLenPdf::19                  34355                       # What read queue length does an incoming req see
system.mem_ctrls.rdQLenPdf::20                  35182                       # What read queue length does an incoming req see
system.mem_ctrls.rdQLenPdf::21                  36473                       # What read queue length does an incoming req see
system.mem_ctrls.rdQLenPdf::22                  35002                       # What read queue length does an incoming req see
system.mem_ctrls.rdQLenPdf::23                  34589                       # What read queue length does an incoming req see
system.mem_ctrls.rdQLenPdf::24                  33532                       # What read queue length does an incoming req see
system.mem_ctrls.rdQLenPdf::25                  32644                       # What read queue length does an incoming req see
system.mem_ctrls.rdQLenPdf::26                  32243                       # What read queue length does an incoming req see
system.mem_ctrls.rdQLenPdf::27                  33184                       # What read queue length does an incoming req see
system.mem_ctrls.rdQLenPdf::28                  33434                       # What read queue length does an incoming req see
system.mem_ctrls.rdQLenPdf::29                  33800                       # What read queue length does an incoming req see
system.mem_ctrls.rdQLenPdf::30                 716182                       # What read queue length does an incoming req see
system.mem_ctrls.rdQLenPdf::31                 700208                       # What read queue length does an incoming req see
system.mem_ctrls.wrQLenPdf::0                       1                       # What write queue length does an incoming req see
system.mem_ctrls.wrQLenPdf::1                       1                       # What write queue length does an incoming req see
system.mem_ctrls.wrQLenPdf::2                       1                       # What write queue length does an incoming req see
system.mem_ctrls.wrQLenPdf::3                       1                       # What write queue length does an incoming req see
system.mem_ctrls.wrQLenPdf::4                       1                       # What write queue length does an incoming req see
system.mem_ctrls.wrQLenPdf::5                       1                       # What write queue length does an incoming req see
system.mem_ctrls.wrQLenPdf::6                       1                       # What write queue length does an incoming req see
system.mem_ctrls.wrQLenPdf::7                       1                       # What write queue length does an incoming req see
system.mem_ctrls.wrQLenPdf::8                       1                       # What write queue length does an incoming req see
system.mem_ctrls.wrQLenPdf::9                       1                       # What write queue length does an incoming req see
system.mem_ctrls.wrQLenPdf::10                      1                       # What write queue length does an incoming req see
system.mem_ctrls.wrQLenPdf::11                      1                       # What write queue length does an incoming req see
system.mem_ctrls.wrQLenPdf::12                      1                       # What write queue length does an incoming req see
system.mem_ctrls.wrQLenPdf::13                      1                       # What write queue length does an incoming req see
system.mem_ctrls.wrQLenPdf::14                      1                       # What write queue length does an incoming req see
system.mem_ctrls.wrQLenPdf::15                   1185                       # What write queue length does an incoming req see
system.mem_ctrls.wrQLenPdf::16                   1423                       # What write queue length does an incoming req see
system.mem_ctrls.wrQLenPdf::17                  33646                       # What write queue length does an incoming req see
system.mem_ctrls.wrQLenPdf::18                  34601                       # What write queue length does an incoming req see
system.mem_ctrls.wrQLenPdf::19                  35268                       # What write queue length does an incoming req see
system.mem_ctrls.wrQLenPdf::20                  38942                       # What write queue length does an incoming req see
system.mem_ctrls.wrQLenPdf::21                  41428                       # What write queue length does an incoming req see
system.mem_ctrls.wrQLenPdf::22                  52706                       # What write queue length does an incoming req see
system.mem_ctrls.wrQLenPdf::23                  60397                       # What write queue length does an incoming req see
system.mem_ctrls.wrQLenPdf::24                  84114                       # What write queue length does an incoming req see
system.mem_ctrls.wrQLenPdf::25                  87173                       # What write queue length does an incoming req see
system.mem_ctrls.wrQLenPdf::26                 100427                       # What write queue length does an incoming req see
system.mem_ctrls.wrQLenPdf::27                 103891                       # What write queue length does an incoming req see
system.mem_ctrls.wrQLenPdf::28                 111007                       # What write queue length does an incoming req see
system.mem_ctrls.wrQLenPdf::29                 113503                       # What write queue length does an incoming req see
system.mem_ctrls.wrQLenPdf::30                 115894                       # What write queue length does an incoming req see
system.mem_ctrls.wrQLenPdf::31                 112426                       # What write queue length does an incoming req see
system.mem_ctrls.wrQLenPdf::32                 112797                       # What write queue length does an incoming req see
system.mem_ctrls.wrQLenPdf::33                  77520                       # What write queue length does an incoming req see
system.mem_ctrls.wrQLenPdf::34                  24364                       # What write queue length does an incoming req see
system.mem_ctrls.wrQLenPdf::35                  14631                       # What write queue length does an incoming req see
system.mem_ctrls.wrQLenPdf::36                   9352                       # What write queue length does an incoming req see
system.mem_ctrls.wrQLenPdf::37                   7549                       # What write queue length does an incoming req see
system.mem_ctrls.wrQLenPdf::38                   5443                       # What write queue length does an incoming req see
system.mem_ctrls.wrQLenPdf::39                   7573                       # What write queue length does an incoming req see
system.mem_ctrls.wrQLenPdf::40                   7471                       # What write queue length does an incoming req see
system.mem_ctrls.wrQLenPdf::41                  10742                       # What write queue length does an incoming req see
system.mem_ctrls.wrQLenPdf::42                  11594                       # What write queue length does an incoming req see
system.mem_ctrls.wrQLenPdf::43                  15896                       # What write queue length does an incoming req see
system.mem_ctrls.wrQLenPdf::44                  17301                       # What write queue length does an incoming req see
system.mem_ctrls.wrQLenPdf::45                  22453                       # What write queue length does an incoming req see
system.mem_ctrls.wrQLenPdf::46                  24382                       # What write queue length does an incoming req see
system.mem_ctrls.wrQLenPdf::47                  30194                       # What write queue length does an incoming req see
system.mem_ctrls.wrQLenPdf::48                  32546                       # What write queue length does an incoming req see
system.mem_ctrls.wrQLenPdf::49                  38556                       # What write queue length does an incoming req see
system.mem_ctrls.wrQLenPdf::50                  41729                       # What write queue length does an incoming req see
system.mem_ctrls.wrQLenPdf::51                  48356                       # What write queue length does an incoming req see
system.mem_ctrls.wrQLenPdf::52                  52846                       # What write queue length does an incoming req see
system.mem_ctrls.wrQLenPdf::53                  61086                       # What write queue length does an incoming req see
system.mem_ctrls.wrQLenPdf::54                  70905                       # What write queue length does an incoming req see
system.mem_ctrls.wrQLenPdf::55                  57962                       # What write queue length does an incoming req see
system.mem_ctrls.wrQLenPdf::56                  48108                       # What write queue length does an incoming req see
system.mem_ctrls.wrQLenPdf::57                  32697                       # What write queue length does an incoming req see
system.mem_ctrls.wrQLenPdf::58                  24051                       # What write queue length does an incoming req see
system.mem_ctrls.wrQLenPdf::59                  15400                       # What write queue length does an incoming req see
system.mem_ctrls.wrQLenPdf::60                  11146                       # What write queue length does an incoming req see
system.mem_ctrls.wrQLenPdf::61                   7194                       # What write queue length does an incoming req see
system.mem_ctrls.wrQLenPdf::62                  11776                       # What write queue length does an incoming req see
system.mem_ctrls.wrQLenPdf::63                   8201                       # What write queue length does an incoming req see
system.mem_ctrls.bytesPerActivate::samples      1532886                       # Bytes accessed per row activation
system.mem_ctrls.bytesPerActivate::mean    267.410007                       # Bytes accessed per row activation
system.mem_ctrls.bytesPerActivate::gmean   193.093746                       # Bytes accessed per row activation
system.mem_ctrls.bytesPerActivate::stdev   278.044661                       # Bytes accessed per row activation
system.mem_ctrls.bytesPerActivate::0-127        34057      2.22%      2.22% # Bytes accessed per row activation
system.mem_ctrls.bytesPerActivate::128-255       977119     63.74%     65.97% # Bytes accessed per row activation
system.mem_ctrls.bytesPerActivate::256-383       269227     17.56%     83.53% # Bytes accessed per row activation
system.mem_ctrls.bytesPerActivate::384-511        25370      1.66%     85.18% # Bytes accessed per row activation
system.mem_ctrls.bytesPerActivate::512-639        32168      2.10%     87.28% # Bytes accessed per row activation
system.mem_ctrls.bytesPerActivate::640-767        18016      1.18%     88.46% # Bytes accessed per row activation
system.mem_ctrls.bytesPerActivate::768-895        16262      1.06%     89.52% # Bytes accessed per row activation
system.mem_ctrls.bytesPerActivate::896-1023        16965      1.11%     90.63% # Bytes accessed per row activation
system.mem_ctrls.bytesPerActivate::1024-1151       143702      9.37%    100.00% # Bytes accessed per row activation
system.mem_ctrls.bytesPerActivate::total      1532886                       # Bytes accessed per row activation
system.mem_ctrls.rdPerTurnAround::samples       130277                       # Reads before turning the bus around for writes
system.mem_ctrls.rdPerTurnAround::mean      33.114019                       # Reads before turning the bus around for writes
system.mem_ctrls.rdPerTurnAround::gmean     22.612945                       # Reads before turning the bus around for writes
system.mem_ctrls.rdPerTurnAround::stdev    117.051459                       # Reads before turning the bus around for writes
system.mem_ctrls.rdPerTurnAround::0-1023       129861     99.68%     99.68% # Reads before turning the bus around for writes
system.mem_ctrls.rdPerTurnAround::1024-2047          396      0.30%     99.98% # Reads before turning the bus around for writes
system.mem_ctrls.rdPerTurnAround::2048-3071           15      0.01%    100.00% # Reads before turning the bus around for writes
system.mem_ctrls.rdPerTurnAround::3072-4095            2      0.00%    100.00% # Reads before turning the bus around for writes
system.mem_ctrls.rdPerTurnAround::7168-8191            2      0.00%    100.00% # Reads before turning the bus around for writes
system.mem_ctrls.rdPerTurnAround::23552-24575            1      0.00%    100.00% # Reads before turning the bus around for writes
system.mem_ctrls.rdPerTurnAround::total        130277                       # Reads before turning the bus around for writes
system.mem_ctrls.wrPerTurnAround::samples       130277                       # Writes before turning the bus around for reads
system.mem_ctrls.wrPerTurnAround::mean      16.041512                       # Writes before turning the bus around for reads
system.mem_ctrls.wrPerTurnAround::gmean     16.034883                       # Writes before turning the bus around for reads
system.mem_ctrls.wrPerTurnAround::stdev      0.560842                       # Writes before turning the bus around for reads
system.mem_ctrls.wrPerTurnAround::16           128702     98.79%     98.79% # Writes before turning the bus around for reads
system.mem_ctrls.wrPerTurnAround::17               61      0.05%     98.84% # Writes before turning the bus around for reads
system.mem_ctrls.wrPerTurnAround::18             1182      0.91%     99.75% # Writes before turning the bus around for reads
system.mem_ctrls.wrPerTurnAround::19               43      0.03%     99.78% # Writes before turning the bus around for reads
system.mem_ctrls.wrPerTurnAround::20               53      0.04%     99.82% # Writes before turning the bus around for reads
system.mem_ctrls.wrPerTurnAround::21               15      0.01%     99.83% # Writes before turning the bus around for reads
system.mem_ctrls.wrPerTurnAround::22               31      0.02%     99.85% # Writes before turning the bus around for reads
system.mem_ctrls.wrPerTurnAround::23               13      0.01%     99.86% # Writes before turning the bus around for reads
system.mem_ctrls.wrPerTurnAround::24               38      0.03%     99.89% # Writes before turning the bus around for reads
system.mem_ctrls.wrPerTurnAround::25               13      0.01%     99.90% # Writes before turning the bus around for reads
system.mem_ctrls.wrPerTurnAround::26               23      0.02%     99.92% # Writes before turning the bus around for reads
system.mem_ctrls.wrPerTurnAround::27                4      0.00%     99.92% # Writes before turning the bus around for reads
system.mem_ctrls.wrPerTurnAround::28               19      0.01%     99.94% # Writes before turning the bus around for reads
system.mem_ctrls.wrPerTurnAround::29                8      0.01%     99.94% # Writes before turning the bus around for reads
system.mem_ctrls.wrPerTurnAround::30               14      0.01%     99.96% # Writes before turning the bus around for reads
system.mem_ctrls.wrPerTurnAround::31                5      0.00%     99.96% # Writes before turning the bus around for reads
system.mem_ctrls.wrPerTurnAround::32               13      0.01%     99.97% # Writes before turning the bus around for reads
system.mem_ctrls.wrPerTurnAround::33                4      0.00%     99.97% # Writes before turning the bus around for reads
system.mem_ctrls.wrPerTurnAround::34               12      0.01%     99.98% # Writes before turning the bus around for reads
system.mem_ctrls.wrPerTurnAround::35                1      0.00%     99.98% # Writes before turning the bus around for reads
system.mem_ctrls.wrPerTurnAround::36               11      0.01%     99.99% # Writes before turning the bus around for reads
system.mem_ctrls.wrPerTurnAround::37                6      0.00%    100.00% # Writes before turning the bus around for reads
system.mem_ctrls.wrPerTurnAround::38                5      0.00%    100.00% # Writes before turning the bus around for reads
system.mem_ctrls.wrPerTurnAround::41                1      0.00%    100.00% # Writes before turning the bus around for reads
system.mem_ctrls.wrPerTurnAround::total        130277                       # Writes before turning the bus around for reads
system.mem_ctrls.totQLat                 537715803245                       # Total ticks spent queuing
system.mem_ctrls.totMemAccLat            618621134495                       # Total ticks spent from burst creation until serviced by the DRAM
system.mem_ctrls.totBusLat                21574755000                       # Total ticks spent in databus transfers
system.mem_ctrls.avgQLat                    124616.90                       # Average queueing delay per DRAM burst
system.mem_ctrls.avgBusLat                    5000.00                       # Average bus latency per DRAM burst
system.mem_ctrls.avgMemAccLat               143366.90                       # Average memory access latency per DRAM burst
system.mem_ctrls.avgRdBW                      1893.88                       # Average DRAM read bandwidth in MiByte/s
system.mem_ctrls.avgWrBW                       917.26                       # Average achieved write bandwidth in MiByte/s
system.mem_ctrls.avgRdBWSys                   1895.16                       # Average system read bandwidth in MiByte/s
system.mem_ctrls.avgWrBWSys                    917.28                       # Average system write bandwidth in MiByte/s
system.mem_ctrls.peakBW                      12800.00                       # Theoretical peak bandwidth in MiByte/s
system.mem_ctrls.busUtil                        21.96                       # Data bus utilization in percentage
system.mem_ctrls.busUtilRead                    14.80                       # Data bus utilization in percentage for reads
system.mem_ctrls.busUtilWrite                    7.17                       # Data bus utilization in percentage for writes
system.mem_ctrls.avgRdQLen                       6.08                       # Average read queue length when enqueuing
system.mem_ctrls.avgWrQLen                      29.77                       # Average write queue length when enqueuing
system.mem_ctrls.readRowHits                  3192132                       # Number of row buffer hits during reads
system.mem_ctrls.writeRowHits                 1679781                       # Number of row buffer hits during writes
system.mem_ctrls.readRowHitRate                 73.98                       # Row buffer hit rate for reads
system.mem_ctrls.writeRowHitRate                80.38                       # Row buffer hit rate for writes
system.mem_ctrls.avgGap                      45512.15                       # Average gap between requests
system.mem_ctrls.pageHitRate                    76.07                       # Row buffer hit rate, read and write combined
system.mem_ctrls_0.actEnergy               5703112800                       # Energy for activate commands per rank (pJ)
system.mem_ctrls_0.preEnergy               3111817500                       # Energy for precharge commands per rank (pJ)
system.mem_ctrls_0.readEnergy             16594921200                       # Energy for read commands per rank (pJ)
system.mem_ctrls_0.writeEnergy             6825390480                       # Energy for write commands per rank (pJ)
system.mem_ctrls_0.refreshEnergy           9524311680                       # Energy for refresh commands per rank (pJ)
system.mem_ctrls_0.actBackEnergy          69195974220                       # Energy for active background per rank (pJ)
system.mem_ctrls_0.preBackEnergy          26794467000                       # Energy for precharge background per rank (pJ)
system.mem_ctrls_0.totalEnergy           137749994880                       # Total energy per rank (pJ)
system.mem_ctrls_0.averagePower            944.650312                       # Core power per rank (mW)
system.mem_ctrls_0.memoryStateTime::IDLE  43904573029                       # Time in different power states
system.mem_ctrls_0.memoryStateTime::REF    4869280000                       # Time in different power states
system.mem_ctrls_0.memoryStateTime::PRE_PDN            0                       # Time in different power states
system.mem_ctrls_0.memoryStateTime::ACT   97047301721                       # Time in different power states
system.mem_ctrls_0.memoryStateTime::ACT_PDN            0                       # Time in different power states
system.mem_ctrls_1.actEnergy               5885611200                       # Energy for activate commands per rank (pJ)
system.mem_ctrls_1.preEnergy               3211395000                       # Energy for precharge commands per rank (pJ)
system.mem_ctrls_1.readEnergy             17062819800                       # Energy for read commands per rank (pJ)
system.mem_ctrls_1.writeEnergy             6716772720                       # Energy for write commands per rank (pJ)
system.mem_ctrls_1.refreshEnergy           9524311680                       # Energy for refresh commands per rank (pJ)
system.mem_ctrls_1.actBackEnergy          67543341300                       # Energy for active background per rank (pJ)
system.mem_ctrls_1.preBackEnergy          28244145000                       # Energy for precharge background per rank (pJ)
system.mem_ctrls_1.totalEnergy           138188396700                       # Total energy per rank (pJ)
system.mem_ctrls_1.averagePower            947.656747                       # Core power per rank (mW)
system.mem_ctrls_1.memoryStateTime::IDLE  46311023281                       # Time in different power states
system.mem_ctrls_1.memoryStateTime::REF    4869280000                       # Time in different power states
system.mem_ctrls_1.memoryStateTime::PRE_PDN            0                       # Time in different power states
system.mem_ctrls_1.memoryStateTime::ACT   94641118219                       # Time in different power states
system.mem_ctrls_1.memoryStateTime::ACT_PDN            0                       # Time in different power states
system.ruby_clk_domain.clock                      500                       # Clock period in ticks
system.ruby.phys_mem.bytes_read::gpu.ce      50380812                       # Number of bytes read from this memory
system.ruby.phys_mem.bytes_read::gpu.shader_cores0.data      9806592                       # Number of bytes read from this memory
system.ruby.phys_mem.bytes_read::gpu.shader_cores0.inst          576                       # Number of bytes read from this memory
system.ruby.phys_mem.bytes_read::gpu.shader_cores1.data      9750784                       # Number of bytes read from this memory
system.ruby.phys_mem.bytes_read::gpu.shader_cores1.inst          576                       # Number of bytes read from this memory
system.ruby.phys_mem.bytes_read::gpu.shader_cores2.data      9808736                       # Number of bytes read from this memory
system.ruby.phys_mem.bytes_read::gpu.shader_cores2.inst          576                       # Number of bytes read from this memory
system.ruby.phys_mem.bytes_read::gpu.shader_cores3.data      9693344                       # Number of bytes read from this memory
system.ruby.phys_mem.bytes_read::gpu.shader_cores3.inst          576                       # Number of bytes read from this memory
system.ruby.phys_mem.bytes_read::switch_cpus0.inst    531340432                       # Number of bytes read from this memory
system.ruby.phys_mem.bytes_read::switch_cpus0.data     56200086                       # Number of bytes read from this memory
system.ruby.phys_mem.bytes_read::total      676983090                       # Number of bytes read from this memory
system.ruby.phys_mem.bytes_inst_read::gpu.shader_cores0.inst          576                       # Number of instructions bytes read from this memory
system.ruby.phys_mem.bytes_inst_read::gpu.shader_cores1.inst          576                       # Number of instructions bytes read from this memory
system.ruby.phys_mem.bytes_inst_read::gpu.shader_cores2.inst          576                       # Number of instructions bytes read from this memory
system.ruby.phys_mem.bytes_inst_read::gpu.shader_cores3.inst          576                       # Number of instructions bytes read from this memory
system.ruby.phys_mem.bytes_inst_read::switch_cpus0.inst    531340432                       # Number of instructions bytes read from this memory
system.ruby.phys_mem.bytes_inst_read::total    531342736                       # Number of instructions bytes read from this memory
system.ruby.phys_mem.bytes_written::gpu.ce     50380812                       # Number of bytes written to this memory
system.ruby.phys_mem.bytes_written::gpu.shader_cores0.data      4211712                       # Number of bytes written to this memory
system.ruby.phys_mem.bytes_written::gpu.shader_cores1.data      4189184                       # Number of bytes written to this memory
system.ruby.phys_mem.bytes_written::gpu.shader_cores2.data      4212736                       # Number of bytes written to this memory
system.ruby.phys_mem.bytes_written::gpu.shader_cores3.data      4163584                       # Number of bytes written to this memory
system.ruby.phys_mem.bytes_written::switch_cpus0.data     37552369                       # Number of bytes written to this memory
system.ruby.phys_mem.bytes_written::total    104710397                       # Number of bytes written to this memory
system.ruby.phys_mem.num_reads::gpu.ce         393603                       # Number of read requests responded to by this memory
system.ruby.phys_mem.num_reads::gpu.shader_cores0.data       172711                       # Number of read requests responded to by this memory
system.ruby.phys_mem.num_reads::gpu.shader_cores0.inst           36                       # Number of read requests responded to by this memory
system.ruby.phys_mem.num_reads::gpu.shader_cores1.data       171885                       # Number of read requests responded to by this memory
system.ruby.phys_mem.num_reads::gpu.shader_cores1.inst           36                       # Number of read requests responded to by this memory
system.ruby.phys_mem.num_reads::gpu.shader_cores2.data       172760                       # Number of read requests responded to by this memory
system.ruby.phys_mem.num_reads::gpu.shader_cores2.inst           36                       # Number of read requests responded to by this memory
system.ruby.phys_mem.num_reads::gpu.shader_cores3.data       170772                       # Number of read requests responded to by this memory
system.ruby.phys_mem.num_reads::gpu.shader_cores3.inst           36                       # Number of read requests responded to by this memory
system.ruby.phys_mem.num_reads::switch_cpus0.inst     66417554                       # Number of read requests responded to by this memory
system.ruby.phys_mem.num_reads::switch_cpus0.data     13587023                       # Number of read requests responded to by this memory
system.ruby.phys_mem.num_reads::total        81086452                       # Number of read requests responded to by this memory
system.ruby.phys_mem.num_writes::gpu.ce        393603                       # Number of write requests responded to by this memory
system.ruby.phys_mem.num_writes::gpu.shader_cores0.data        96623                       # Number of write requests responded to by this memory
system.ruby.phys_mem.num_writes::gpu.shader_cores1.data        96197                       # Number of write requests responded to by this memory
system.ruby.phys_mem.num_writes::gpu.shader_cores2.data        96653                       # Number of write requests responded to by this memory
system.ruby.phys_mem.num_writes::gpu.shader_cores3.data        95551                       # Number of write requests responded to by this memory
system.ruby.phys_mem.num_writes::switch_cpus0.data      6946312                       # Number of write requests responded to by this memory
system.ruby.phys_mem.num_writes::total        7724939                       # Number of write requests responded to by this memory
system.ruby.phys_mem.bw_read::gpu.ce        345511719                       # Total read bandwidth from this memory (bytes/s)
system.ruby.phys_mem.bw_read::gpu.shader_cores0.data     67253629                       # Total read bandwidth from this memory (bytes/s)
system.ruby.phys_mem.bw_read::gpu.shader_cores0.inst         3950                       # Total read bandwidth from this memory (bytes/s)
system.ruby.phys_mem.bw_read::gpu.shader_cores1.data     66870898                       # Total read bandwidth from this memory (bytes/s)
system.ruby.phys_mem.bw_read::gpu.shader_cores1.inst         3950                       # Total read bandwidth from this memory (bytes/s)
system.ruby.phys_mem.bw_read::gpu.shader_cores2.data     67268333                       # Total read bandwidth from this memory (bytes/s)
system.ruby.phys_mem.bw_read::gpu.shader_cores2.inst         3950                       # Total read bandwidth from this memory (bytes/s)
system.ruby.phys_mem.bw_read::gpu.shader_cores3.data     66476974                       # Total read bandwidth from this memory (bytes/s)
system.ruby.phys_mem.bw_read::gpu.shader_cores3.inst         3950                       # Total read bandwidth from this memory (bytes/s)
system.ruby.phys_mem.bw_read::switch_cpus0.inst   3643933843                       # Total read bandwidth from this memory (bytes/s)
system.ruby.phys_mem.bw_read::switch_cpus0.data    385420313                       # Total read bandwidth from this memory (bytes/s)
system.ruby.phys_mem.bw_read::total        4642751510                       # Total read bandwidth from this memory (bytes/s)
system.ruby.phys_mem.bw_inst_read::gpu.shader_cores0.inst         3950                       # Instruction read bandwidth from this memory (bytes/s)
system.ruby.phys_mem.bw_inst_read::gpu.shader_cores1.inst         3950                       # Instruction read bandwidth from this memory (bytes/s)
system.ruby.phys_mem.bw_inst_read::gpu.shader_cores2.inst         3950                       # Instruction read bandwidth from this memory (bytes/s)
system.ruby.phys_mem.bw_inst_read::gpu.shader_cores3.inst         3950                       # Instruction read bandwidth from this memory (bytes/s)
system.ruby.phys_mem.bw_inst_read::switch_cpus0.inst   3643933843                       # Instruction read bandwidth from this memory (bytes/s)
system.ruby.phys_mem.bw_inst_read::total   3643949644                       # Instruction read bandwidth from this memory (bytes/s)
system.ruby.phys_mem.bw_write::gpu.ce       345511719                       # Write bandwidth from this memory (bytes/s)
system.ruby.phys_mem.bw_write::gpu.shader_cores0.data     28883930                       # Write bandwidth from this memory (bytes/s)
system.ruby.phys_mem.bw_write::gpu.shader_cores1.data     28729433                       # Write bandwidth from this memory (bytes/s)
system.ruby.phys_mem.bw_write::gpu.shader_cores2.data     28890953                       # Write bandwidth from this memory (bytes/s)
system.ruby.phys_mem.bw_write::gpu.shader_cores3.data     28553868                       # Write bandwidth from this memory (bytes/s)
system.ruby.phys_mem.bw_write::switch_cpus0.data    257534229                       # Write bandwidth from this memory (bytes/s)
system.ruby.phys_mem.bw_write::total        718104131                       # Write bandwidth from this memory (bytes/s)
system.ruby.phys_mem.bw_total::gpu.ce       691023437                       # Total bandwidth to/from this memory (bytes/s)
system.ruby.phys_mem.bw_total::gpu.shader_cores0.data     96137559                       # Total bandwidth to/from this memory (bytes/s)
system.ruby.phys_mem.bw_total::gpu.shader_cores0.inst         3950                       # Total bandwidth to/from this memory (bytes/s)
system.ruby.phys_mem.bw_total::gpu.shader_cores1.data     95600331                       # Total bandwidth to/from this memory (bytes/s)
system.ruby.phys_mem.bw_total::gpu.shader_cores1.inst         3950                       # Total bandwidth to/from this memory (bytes/s)
system.ruby.phys_mem.bw_total::gpu.shader_cores2.data     96159286                       # Total bandwidth to/from this memory (bytes/s)
system.ruby.phys_mem.bw_total::gpu.shader_cores2.inst         3950                       # Total bandwidth to/from this memory (bytes/s)
system.ruby.phys_mem.bw_total::gpu.shader_cores3.data     95030842                       # Total bandwidth to/from this memory (bytes/s)
system.ruby.phys_mem.bw_total::gpu.shader_cores3.inst         3950                       # Total bandwidth to/from this memory (bytes/s)
system.ruby.phys_mem.bw_total::switch_cpus0.inst   3643933843                       # Total bandwidth to/from this memory (bytes/s)
system.ruby.phys_mem.bw_total::switch_cpus0.data    642954541                       # Total bandwidth to/from this memory (bytes/s)
system.ruby.phys_mem.bw_total::total       5360855641                       # Total bandwidth to/from this memory (bytes/s)
system.cpu_voltage_domain.voltage                   1                       # Voltage in Volts
system.cpu_clk_domain.clock                       500                       # Clock period in ticks
system.cpu0.apic_clk_domain.clock                8000                       # Clock period in ticks
system.cpu0.workload.num_syscalls                  30                       # Number of system calls
system.cpu0.numCycles                               0                       # number of cpu cycles simulated
system.cpu0.numWorkItemsStarted                     0                       # number of work items this cpu started
system.cpu0.numWorkItemsCompleted                   0                       # number of work items this cpu completed
system.cpu0.committedInsts                          0                       # Number of instructions committed
system.cpu0.committedOps                            0                       # Number of ops (including micro ops) committed
system.cpu0.num_int_alu_accesses                    0                       # Number of integer alu accesses
system.cpu0.num_fp_alu_accesses                     0                       # Number of float alu accesses
system.cpu0.num_func_calls                          0                       # number of times a function call or return occured
system.cpu0.num_conditional_control_insts            0                       # number of instructions that are conditional controls
system.cpu0.num_int_insts                           0                       # number of integer instructions
system.cpu0.num_fp_insts                            0                       # number of float instructions
system.cpu0.num_int_register_reads                  0                       # number of times the integer registers were read
system.cpu0.num_int_register_writes                 0                       # number of times the integer registers were written
system.cpu0.num_fp_register_reads                   0                       # number of times the floating registers were read
system.cpu0.num_fp_register_writes                  0                       # number of times the floating registers were written
system.cpu0.num_mem_refs                            0                       # number of memory refs
system.cpu0.num_load_insts                          0                       # Number of load instructions
system.cpu0.num_store_insts                         0                       # Number of store instructions
system.cpu0.num_idle_cycles                         0                       # Number of idle cycles
system.cpu0.num_busy_cycles                         0                       # Number of busy cycles
system.cpu0.not_idle_fraction                       1                       # Percentage of non-idle cycles
system.cpu0.idle_fraction                           0                       # Percentage of idle cycles
system.cpu0.op_class::No_OpClass                    0                       # Class of executed instruction
system.cpu0.op_class::IntAlu                        0                       # Class of executed instruction
system.cpu0.op_class::IntMult                       0                       # Class of executed instruction
system.cpu0.op_class::IntDiv                        0                       # Class of executed instruction
system.cpu0.op_class::FloatAdd                      0                       # Class of executed instruction
system.cpu0.op_class::FloatCmp                      0                       # Class of executed instruction
system.cpu0.op_class::FloatCvt                      0                       # Class of executed instruction
system.cpu0.op_class::FloatMult                     0                       # Class of executed instruction
system.cpu0.op_class::FloatDiv                      0                       # Class of executed instruction
system.cpu0.op_class::FloatSqrt                     0                       # Class of executed instruction
system.cpu0.op_class::SimdAdd                       0                       # Class of executed instruction
system.cpu0.op_class::SimdAddAcc                    0                       # Class of executed instruction
system.cpu0.op_class::SimdAlu                       0                       # Class of executed instruction
system.cpu0.op_class::SimdCmp                       0                       # Class of executed instruction
system.cpu0.op_class::SimdCvt                       0                       # Class of executed instruction
system.cpu0.op_class::SimdMisc                      0                       # Class of executed instruction
system.cpu0.op_class::SimdMult                      0                       # Class of executed instruction
system.cpu0.op_class::SimdMultAcc                   0                       # Class of executed instruction
system.cpu0.op_class::SimdShift                     0                       # Class of executed instruction
system.cpu0.op_class::SimdShiftAcc                  0                       # Class of executed instruction
system.cpu0.op_class::SimdSqrt                      0                       # Class of executed instruction
system.cpu0.op_class::SimdFloatAdd                  0                       # Class of executed instruction
system.cpu0.op_class::SimdFloatAlu                  0                       # Class of executed instruction
system.cpu0.op_class::SimdFloatCmp                  0                       # Class of executed instruction
system.cpu0.op_class::SimdFloatCvt                  0                       # Class of executed instruction
system.cpu0.op_class::SimdFloatDiv                  0                       # Class of executed instruction
system.cpu0.op_class::SimdFloatMisc                 0                       # Class of executed instruction
system.cpu0.op_class::SimdFloatMult                 0                       # Class of executed instruction
system.cpu0.op_class::SimdFloatMultAcc              0                       # Class of executed instruction
system.cpu0.op_class::SimdFloatSqrt                 0                       # Class of executed instruction
system.cpu0.op_class::MemRead                       0                       # Class of executed instruction
system.cpu0.op_class::MemWrite                      0                       # Class of executed instruction
system.cpu0.op_class::IprAccess                     0                       # Class of executed instruction
system.cpu0.op_class::InstPrefetch                  0                       # Class of executed instruction
system.cpu0.op_class::total                         0                       # Class of executed instruction
system.cpu1.apic_clk_domain.clock                8000                       # Clock period in ticks
system.cpu1.numCycles                               0                       # number of cpu cycles simulated
system.cpu1.numWorkItemsStarted                     0                       # number of work items this cpu started
system.cpu1.numWorkItemsCompleted                   0                       # number of work items this cpu completed
system.cpu1.committedInsts                          0                       # Number of instructions committed
system.cpu1.committedOps                            0                       # Number of ops (including micro ops) committed
system.cpu1.num_int_alu_accesses                    0                       # Number of integer alu accesses
system.cpu1.num_fp_alu_accesses                     0                       # Number of float alu accesses
system.cpu1.num_func_calls                          0                       # number of times a function call or return occured
system.cpu1.num_conditional_control_insts            0                       # number of instructions that are conditional controls
system.cpu1.num_int_insts                           0                       # number of integer instructions
system.cpu1.num_fp_insts                            0                       # number of float instructions
system.cpu1.num_int_register_reads                  0                       # number of times the integer registers were read
system.cpu1.num_int_register_writes                 0                       # number of times the integer registers were written
system.cpu1.num_fp_register_reads                   0                       # number of times the floating registers were read
system.cpu1.num_fp_register_writes                  0                       # number of times the floating registers were written
system.cpu1.num_mem_refs                            0                       # number of memory refs
system.cpu1.num_load_insts                          0                       # Number of load instructions
system.cpu1.num_store_insts                         0                       # Number of store instructions
system.cpu1.num_idle_cycles                         0                       # Number of idle cycles
system.cpu1.num_busy_cycles                         0                       # Number of busy cycles
system.cpu1.not_idle_fraction                       0                       # Percentage of non-idle cycles
system.cpu1.idle_fraction                           1                       # Percentage of idle cycles
system.cpu1.op_class::No_OpClass                    0                       # Class of executed instruction
system.cpu1.op_class::IntAlu                        0                       # Class of executed instruction
system.cpu1.op_class::IntMult                       0                       # Class of executed instruction
system.cpu1.op_class::IntDiv                        0                       # Class of executed instruction
system.cpu1.op_class::FloatAdd                      0                       # Class of executed instruction
system.cpu1.op_class::FloatCmp                      0                       # Class of executed instruction
system.cpu1.op_class::FloatCvt                      0                       # Class of executed instruction
system.cpu1.op_class::FloatMult                     0                       # Class of executed instruction
system.cpu1.op_class::FloatDiv                      0                       # Class of executed instruction
system.cpu1.op_class::FloatSqrt                     0                       # Class of executed instruction
system.cpu1.op_class::SimdAdd                       0                       # Class of executed instruction
system.cpu1.op_class::SimdAddAcc                    0                       # Class of executed instruction
system.cpu1.op_class::SimdAlu                       0                       # Class of executed instruction
system.cpu1.op_class::SimdCmp                       0                       # Class of executed instruction
system.cpu1.op_class::SimdCvt                       0                       # Class of executed instruction
system.cpu1.op_class::SimdMisc                      0                       # Class of executed instruction
system.cpu1.op_class::SimdMult                      0                       # Class of executed instruction
system.cpu1.op_class::SimdMultAcc                   0                       # Class of executed instruction
system.cpu1.op_class::SimdShift                     0                       # Class of executed instruction
system.cpu1.op_class::SimdShiftAcc                  0                       # Class of executed instruction
system.cpu1.op_class::SimdSqrt                      0                       # Class of executed instruction
system.cpu1.op_class::SimdFloatAdd                  0                       # Class of executed instruction
system.cpu1.op_class::SimdFloatAlu                  0                       # Class of executed instruction
system.cpu1.op_class::SimdFloatCmp                  0                       # Class of executed instruction
system.cpu1.op_class::SimdFloatCvt                  0                       # Class of executed instruction
system.cpu1.op_class::SimdFloatDiv                  0                       # Class of executed instruction
system.cpu1.op_class::SimdFloatMisc                 0                       # Class of executed instruction
system.cpu1.op_class::SimdFloatMult                 0                       # Class of executed instruction
system.cpu1.op_class::SimdFloatMultAcc              0                       # Class of executed instruction
system.cpu1.op_class::SimdFloatSqrt                 0                       # Class of executed instruction
system.cpu1.op_class::MemRead                       0                       # Class of executed instruction
system.cpu1.op_class::MemWrite                      0                       # Class of executed instruction
system.cpu1.op_class::IprAccess                     0                       # Class of executed instruction
system.cpu1.op_class::InstPrefetch                  0                       # Class of executed instruction
system.cpu1.op_class::total                         0                       # Class of executed instruction
system.gpu.clk_domain.voltage_domain.voltage            1                       # Voltage in Volts
system.gpu.clk_domain.clock                      1429                       # Clock period in ticks
system.gpu.dram_wrapper.clk_domain.clock          541                       # Clock period in ticks
system.gpu.icnt_wrapper.clk_domain.clock         2858                       # Clock period in ticks
system.ruby.delayHist::bucket_size                128                       # delay histogram for all message
system.ruby.delayHist::max_bucket                1279                       # delay histogram for all message
system.ruby.delayHist::samples               15374956                       # delay histogram for all message
system.ruby.delayHist::mean                  6.202715                       # delay histogram for all message
system.ruby.delayHist::stdev                22.098099                       # delay histogram for all message
system.ruby.delayHist                    |    15263217     99.27%     99.27% |       89522      0.58%     99.86% |       19244      0.13%     99.98% |        2697      0.02%    100.00% |         247      0.00%    100.00% |          28      0.00%    100.00% |           1      0.00%    100.00% |           0      0.00%    100.00% |           0      0.00%    100.00% |           0      0.00%    100.00% # delay histogram for all message
system.ruby.delayHist::total                 15374956                       # delay histogram for all message
system.ruby.outstanding_req_hist::bucket_size           16                      
system.ruby.outstanding_req_hist::max_bucket          159                      
system.ruby.outstanding_req_hist::samples     88811391                      
system.ruby.outstanding_req_hist::mean       1.962659                      
system.ruby.outstanding_req_hist::gmean      1.077279                      
system.ruby.outstanding_req_hist::stdev      7.596052                      
system.ruby.outstanding_req_hist         |    87330490     98.33%     98.33% |      241637      0.27%     98.60% |      160083      0.18%     98.78% |       96367      0.11%     98.89% |      855590      0.96%     99.86% |       33696      0.04%     99.89% |       93528      0.11%    100.00% |           0      0.00%    100.00% |           0      0.00%    100.00% |           0      0.00%    100.00%
system.ruby.outstanding_req_hist::total      88811391                      
system.ruby.latency_hist::bucket_size            4096                      
system.ruby.latency_hist::max_bucket            40959                      
system.ruby.latency_hist::samples            88811391                      
system.ruby.latency_hist::mean              76.574769                      
system.ruby.latency_hist::gmean              1.190223                      
system.ruby.latency_hist::stdev            836.198357                      
system.ruby.latency_hist                 |    88197703     99.31%     99.31% |      424503      0.48%     99.79% |       62699      0.07%     99.86% |       53480      0.06%     99.92% |       44323      0.05%     99.97% |       23426      0.03%     99.99% |        4861      0.01%    100.00% |         367      0.00%    100.00% |          29      0.00%    100.00% |           0      0.00%    100.00%
system.ruby.latency_hist::total              88811391                      
system.ruby.hit_latency_hist::bucket_size            1                      
system.ruby.hit_latency_hist::max_bucket            9                      
system.ruby.hit_latency_hist::samples        86636979                      
system.ruby.hit_latency_hist::mean           1.000003                      
system.ruby.hit_latency_hist::gmean          1.000002                      
system.ruby.hit_latency_hist::stdev          0.003048                      
system.ruby.hit_latency_hist             |           0      0.00%      0.00% |    86636844    100.00%    100.00% |          54      0.00%    100.00% |          44      0.00%    100.00% |          17      0.00%    100.00% |          15      0.00%    100.00% |           1      0.00%    100.00% |           3      0.00%    100.00% |           1      0.00%    100.00% |           0      0.00%    100.00%
system.ruby.hit_latency_hist::total          86636979                      
system.ruby.miss_latency_hist::bucket_size         4096                      
system.ruby.miss_latency_hist::max_bucket        40959                      
system.ruby.miss_latency_hist::samples        2174412                      
system.ruby.miss_latency_hist::mean       3087.765546                      
system.ruby.miss_latency_hist::gmean      1227.247506                      
system.ruby.miss_latency_hist::stdev      4389.114983                      
system.ruby.miss_latency_hist            |     1560724     71.78%     71.78% |      424503     19.52%     91.30% |       62699      2.88%     94.18% |       53480      2.46%     96.64% |       44323      2.04%     98.68% |       23426      1.08%     99.76% |        4861      0.22%     99.98% |         367      0.02%    100.00% |          29      0.00%    100.00% |           0      0.00%    100.00%
system.ruby.miss_latency_hist::total          2174412                      
system.gpu.shader_mmu.numPagefaults                 0                       # Number of Pagefaults
system.gpu.shader_mmu.numPagewalks             173393                       # Number of Pagewalks
system.gpu.shader_mmu.totalRequests            173393                       # Total number of requests
system.gpu.shader_mmu.l2hits                        0                       # Hits in the shared L2
system.gpu.shader_mmu.prefetchHits                  0                       # Number of prefetch hits
system.gpu.shader_mmu.numPrefetches                 0                       # Number of prefetchs
system.gpu.shader_mmu.prefetchFaults                0                       # Number of faults caused by prefetches
system.gpu.shader_mmu.pagefaultLatency::samples            0                       # Latency to complete the pagefault
system.gpu.shader_mmu.pagefaultLatency::mean          nan                       # Latency to complete the pagefault
system.gpu.shader_mmu.pagefaultLatency::gmean          nan                       # Latency to complete the pagefault
system.gpu.shader_mmu.pagefaultLatency::stdev          nan                       # Latency to complete the pagefault
system.gpu.shader_mmu.pagefaultLatency::0            0                       # Latency to complete the pagefault
system.gpu.shader_mmu.pagefaultLatency::1            0                       # Latency to complete the pagefault
system.gpu.shader_mmu.pagefaultLatency::2            0                       # Latency to complete the pagefault
system.gpu.shader_mmu.pagefaultLatency::3            0                       # Latency to complete the pagefault
system.gpu.shader_mmu.pagefaultLatency::4            0                       # Latency to complete the pagefault
system.gpu.shader_mmu.pagefaultLatency::5            0                       # Latency to complete the pagefault
system.gpu.shader_mmu.pagefaultLatency::6            0                       # Latency to complete the pagefault
system.gpu.shader_mmu.pagefaultLatency::7            0                       # Latency to complete the pagefault
system.gpu.shader_mmu.pagefaultLatency::8            0                       # Latency to complete the pagefault
system.gpu.shader_mmu.pagefaultLatency::9            0                       # Latency to complete the pagefault
system.gpu.shader_mmu.pagefaultLatency::10            0                       # Latency to complete the pagefault
system.gpu.shader_mmu.pagefaultLatency::11            0                       # Latency to complete the pagefault
system.gpu.shader_mmu.pagefaultLatency::12            0                       # Latency to complete the pagefault
system.gpu.shader_mmu.pagefaultLatency::13            0                       # Latency to complete the pagefault
system.gpu.shader_mmu.pagefaultLatency::14            0                       # Latency to complete the pagefault
system.gpu.shader_mmu.pagefaultLatency::15            0                       # Latency to complete the pagefault
system.gpu.shader_mmu.pagefaultLatency::16            0                       # Latency to complete the pagefault
system.gpu.shader_mmu.pagefaultLatency::17            0                       # Latency to complete the pagefault
system.gpu.shader_mmu.pagefaultLatency::18            0                       # Latency to complete the pagefault
system.gpu.shader_mmu.pagefaultLatency::19            0                       # Latency to complete the pagefault
system.gpu.shader_mmu.pagefaultLatency::20            0                       # Latency to complete the pagefault
system.gpu.shader_mmu.pagefaultLatency::21            0                       # Latency to complete the pagefault
system.gpu.shader_mmu.pagefaultLatency::22            0                       # Latency to complete the pagefault
system.gpu.shader_mmu.pagefaultLatency::23            0                       # Latency to complete the pagefault
system.gpu.shader_mmu.pagefaultLatency::24            0                       # Latency to complete the pagefault
system.gpu.shader_mmu.pagefaultLatency::25            0                       # Latency to complete the pagefault
system.gpu.shader_mmu.pagefaultLatency::26            0                       # Latency to complete the pagefault
system.gpu.shader_mmu.pagefaultLatency::27            0                       # Latency to complete the pagefault
system.gpu.shader_mmu.pagefaultLatency::28            0                       # Latency to complete the pagefault
system.gpu.shader_mmu.pagefaultLatency::29            0                       # Latency to complete the pagefault
system.gpu.shader_mmu.pagefaultLatency::30            0                       # Latency to complete the pagefault
system.gpu.shader_mmu.pagefaultLatency::31            0                       # Latency to complete the pagefault
system.gpu.shader_mmu.pagefaultLatency::total            0                       # Latency to complete the pagefault
system.gpu.shader_mmu.concurrentWalks::samples       173393                       # Number of outstanding walks
system.gpu.shader_mmu.concurrentWalks::mean            0                       # Number of outstanding walks
system.gpu.shader_mmu.concurrentWalks::gmean            0                       # Number of outstanding walks
system.gpu.shader_mmu.concurrentWalks::stdev            0                       # Number of outstanding walks
system.gpu.shader_mmu.concurrentWalks::0       173393    100.00%    100.00% # Number of outstanding walks
system.gpu.shader_mmu.concurrentWalks::1            0      0.00%    100.00% # Number of outstanding walks
system.gpu.shader_mmu.concurrentWalks::2            0      0.00%    100.00% # Number of outstanding walks
system.gpu.shader_mmu.concurrentWalks::3            0      0.00%    100.00% # Number of outstanding walks
system.gpu.shader_mmu.concurrentWalks::4            0      0.00%    100.00% # Number of outstanding walks
system.gpu.shader_mmu.concurrentWalks::5            0      0.00%    100.00% # Number of outstanding walks
system.gpu.shader_mmu.concurrentWalks::6            0      0.00%    100.00% # Number of outstanding walks
system.gpu.shader_mmu.concurrentWalks::7            0      0.00%    100.00% # Number of outstanding walks
system.gpu.shader_mmu.concurrentWalks::8            0      0.00%    100.00% # Number of outstanding walks
system.gpu.shader_mmu.concurrentWalks::9            0      0.00%    100.00% # Number of outstanding walks
system.gpu.shader_mmu.concurrentWalks::10            0      0.00%    100.00% # Number of outstanding walks
system.gpu.shader_mmu.concurrentWalks::11            0      0.00%    100.00% # Number of outstanding walks
system.gpu.shader_mmu.concurrentWalks::12            0      0.00%    100.00% # Number of outstanding walks
system.gpu.shader_mmu.concurrentWalks::13            0      0.00%    100.00% # Number of outstanding walks
system.gpu.shader_mmu.concurrentWalks::14            0      0.00%    100.00% # Number of outstanding walks
system.gpu.shader_mmu.concurrentWalks::15            0      0.00%    100.00% # Number of outstanding walks
system.gpu.shader_mmu.concurrentWalks::total       173393                       # Number of outstanding walks
system.gpu.shader_mmu.pagewalkLatency::samples       173393                       # Latency to complete the pagewalk
system.gpu.shader_mmu.pagewalkLatency::mean            0                       # Latency to complete the pagewalk
system.gpu.shader_mmu.pagewalkLatency::gmean            0                       # Latency to complete the pagewalk
system.gpu.shader_mmu.pagewalkLatency::stdev            0                       # Latency to complete the pagewalk
system.gpu.shader_mmu.pagewalkLatency::0       173393    100.00%    100.00% # Latency to complete the pagewalk
system.gpu.shader_mmu.pagewalkLatency::1            0      0.00%    100.00% # Latency to complete the pagewalk
system.gpu.shader_mmu.pagewalkLatency::2            0      0.00%    100.00% # Latency to complete the pagewalk
system.gpu.shader_mmu.pagewalkLatency::3            0      0.00%    100.00% # Latency to complete the pagewalk
system.gpu.shader_mmu.pagewalkLatency::4            0      0.00%    100.00% # Latency to complete the pagewalk
system.gpu.shader_mmu.pagewalkLatency::5            0      0.00%    100.00% # Latency to complete the pagewalk
system.gpu.shader_mmu.pagewalkLatency::6            0      0.00%    100.00% # Latency to complete the pagewalk
system.gpu.shader_mmu.pagewalkLatency::7            0      0.00%    100.00% # Latency to complete the pagewalk
system.gpu.shader_mmu.pagewalkLatency::8            0      0.00%    100.00% # Latency to complete the pagewalk
system.gpu.shader_mmu.pagewalkLatency::9            0      0.00%    100.00% # Latency to complete the pagewalk
system.gpu.shader_mmu.pagewalkLatency::10            0      0.00%    100.00% # Latency to complete the pagewalk
system.gpu.shader_mmu.pagewalkLatency::11            0      0.00%    100.00% # Latency to complete the pagewalk
system.gpu.shader_mmu.pagewalkLatency::12            0      0.00%    100.00% # Latency to complete the pagewalk
system.gpu.shader_mmu.pagewalkLatency::13            0      0.00%    100.00% # Latency to complete the pagewalk
system.gpu.shader_mmu.pagewalkLatency::14            0      0.00%    100.00% # Latency to complete the pagewalk
system.gpu.shader_mmu.pagewalkLatency::15            0      0.00%    100.00% # Latency to complete the pagewalk
system.gpu.shader_mmu.pagewalkLatency::16            0      0.00%    100.00% # Latency to complete the pagewalk
system.gpu.shader_mmu.pagewalkLatency::17            0      0.00%    100.00% # Latency to complete the pagewalk
system.gpu.shader_mmu.pagewalkLatency::18            0      0.00%    100.00% # Latency to complete the pagewalk
system.gpu.shader_mmu.pagewalkLatency::19            0      0.00%    100.00% # Latency to complete the pagewalk
system.gpu.shader_mmu.pagewalkLatency::20            0      0.00%    100.00% # Latency to complete the pagewalk
system.gpu.shader_mmu.pagewalkLatency::21            0      0.00%    100.00% # Latency to complete the pagewalk
system.gpu.shader_mmu.pagewalkLatency::22            0      0.00%    100.00% # Latency to complete the pagewalk
system.gpu.shader_mmu.pagewalkLatency::23            0      0.00%    100.00% # Latency to complete the pagewalk
system.gpu.shader_mmu.pagewalkLatency::24            0      0.00%    100.00% # Latency to complete the pagewalk
system.gpu.shader_mmu.pagewalkLatency::25            0      0.00%    100.00% # Latency to complete the pagewalk
system.gpu.shader_mmu.pagewalkLatency::26            0      0.00%    100.00% # Latency to complete the pagewalk
system.gpu.shader_mmu.pagewalkLatency::27            0      0.00%    100.00% # Latency to complete the pagewalk
system.gpu.shader_mmu.pagewalkLatency::28            0      0.00%    100.00% # Latency to complete the pagewalk
system.gpu.shader_mmu.pagewalkLatency::29            0      0.00%    100.00% # Latency to complete the pagewalk
system.gpu.shader_mmu.pagewalkLatency::30            0      0.00%    100.00% # Latency to complete the pagewalk
system.gpu.shader_mmu.pagewalkLatency::31            0      0.00%    100.00% # Latency to complete the pagewalk
system.gpu.shader_mmu.pagewalkLatency::total       173393                       # Latency to complete the pagewalk
system.gpu.kernels_started                        255                       # Number of kernels started
system.gpu.kernels_completed                      255                       # Number of kernels completed
system.gpu.ce.device_dtb.hits                       0                       # Number of hits in this TLB
system.gpu.ce.device_dtb.misses                     0                       # Number of misses in this TLB
system.gpu.ce.device_dtb.hitRate                  nan                       # Hit rate for this TLB
system.gpu.ce.host_dtb.hits                    220210                       # Number of hits in this TLB
system.gpu.ce.host_dtb.misses                  173393                       # Number of misses in this TLB
system.gpu.ce.host_dtb.hitRate               0.559472                       # Hit rate for this TLB
system.gpu.ce.numOperations                         3                       # Number of copy/memset operations
system.gpu.ce.opBytesRead                    50380812                       # Number of copy bytes read
system.gpu.ce.opBytesWritten                 50380812                       # Number of copy/memset bytes written
system.gpu.ce.opTimeTicks                 15526560729                       # Total time spent in copy/memset operations
system.gpu.shader_cores0.itb.hits                   0                       # Number of hits in this TLB
system.gpu.shader_cores0.itb.misses                 0                       # Number of misses in this TLB
system.gpu.shader_cores0.itb.hitRate              nan                       # Hit rate for this TLB
system.gpu.shader_cores0.local_loads                0                       # Number of loads from local space
system.gpu.shader_cores0.local_stores               0                       # Number of stores to local space
system.gpu.shader_cores0.shared_loads         5264640                       # Number of loads from shared space
system.gpu.shader_cores0.shared_stores        2241585                       # Number of stores to shared space
system.gpu.shader_cores0.param_kernel_loads      1348784                       # Number of loads from kernel parameter space
system.gpu.shader_cores0.param_local_loads            0                       # Number of loads from local parameter space
system.gpu.shader_cores0.param_local_stores            0                       # Number of stores to local parameter space
system.gpu.shader_cores0.const_loads                0                       # Number of loads from constant space
system.gpu.shader_cores0.tex_loads                  0                       # Number of loads from texture space
system.gpu.shader_cores0.global_loads         1188657                       # Number of loads from global space
system.gpu.shader_cores0.global_stores        1052928                       # Number of stores to global space
system.gpu.shader_cores0.surf_loads                 0                       # Number of loads from surface space
system.gpu.shader_cores0.generic_loads              0                       # Number of loads from generic spaces (global, shared, local)
system.gpu.shader_cores0.generic_stores             0                       # Number of stores to generic spaces (global, shared, local)
system.gpu.shader_cores0.inst_cache_requests           36                       # Number of instruction cache requests sent
system.gpu.shader_cores0.inst_cache_retries            0                       # Number of instruction cache retries
system.gpu.shader_cores0.inst_counts::0             0                       # Inst counts: 1: ALU, 2: MAD, 3: CTRL, 4: SFU, 5: MEM, 6: TEX, 7: NOP
system.gpu.shader_cores0.inst_counts::1      35712619                       # Inst counts: 1: ALU, 2: MAD, 3: CTRL, 4: SFU, 5: MEM, 6: TEX, 7: NOP
system.gpu.shader_cores0.inst_counts::2             0                       # Inst counts: 1: ALU, 2: MAD, 3: CTRL, 4: SFU, 5: MEM, 6: TEX, 7: NOP
system.gpu.shader_cores0.inst_counts::3       6313455                       # Inst counts: 1: ALU, 2: MAD, 3: CTRL, 4: SFU, 5: MEM, 6: TEX, 7: NOP
system.gpu.shader_cores0.inst_counts::4             0                       # Inst counts: 1: ALU, 2: MAD, 3: CTRL, 4: SFU, 5: MEM, 6: TEX, 7: NOP
system.gpu.shader_cores0.inst_counts::5      11096594                       # Inst counts: 1: ALU, 2: MAD, 3: CTRL, 4: SFU, 5: MEM, 6: TEX, 7: NOP
system.gpu.shader_cores0.inst_counts::6             0                       # Inst counts: 1: ALU, 2: MAD, 3: CTRL, 4: SFU, 5: MEM, 6: TEX, 7: NOP
system.gpu.shader_cores0.inst_counts::7             0                       # Inst counts: 1: ALU, 2: MAD, 3: CTRL, 4: SFU, 5: MEM, 6: TEX, 7: NOP
system.gpu.shader_cores0.activeCycles        12821922                       # Number of cycles this shader was executing a CTA
[...]
system.ruby.L1Cache_Controller.I.Load::total         4210                      
system.ruby.L1Cache_Controller.I.Ifetch  |         740    100.00%    100.00% |           0      0.00%    100.00% |           0      0.00%    100.00% |           0      0.00%    100.00% |           0      0.00%    100.00% |           0      0.00%    100.00% |           0      0.00%    100.00% |           0      0.00%    100.00%
system.ruby.L1Cache_Controller.I.Ifetch::total          740                      
system.ruby.L1Cache_Controller.I.Store   |          23    100.00%    100.00% |           0      0.00%    100.00% |           0      0.00%    100.00% |           0      0.00%    100.00% |           0      0.00%    100.00% |           0      0.00%    100.00% |           0      0.00%    100.00% |           0      0.00%    100.00%
system.ruby.L1Cache_Controller.I.Store::total           23                      
system.ruby.L1Cache_Controller.I.L1_Replacement |         372      0.05%      0.05% |           0      0.00%      0.05% |      187581     25.01%     25.06% |      187472     25.00%     50.06% |      187754     25.04%     75.10% |      186751     24.90%    100.00% |           0      0.00%    100.00% |           9      0.00%    100.00%
system.ruby.L1Cache_Controller.I.L1_Replacement::total       749939                      
system.ruby.L1Cache_Controller.S.Load    |           0      0.00%      0.00% |           0      0.00%      0.00% |           0      0.00%      0.00% |           1     25.00%     25.00% |           2     50.00%     75.00% |           1     25.00%    100.00% |           0      0.00%    100.00% |           0      0.00%    100.00%
system.ruby.L1Cache_Controller.S.Load::total            4                      
system.ruby.L1Cache_Controller.S.Ifetch  |    66416376    100.00%    100.00% |           0      0.00%    100.00% |           0      0.00%    100.00% |           0      0.00%    100.00% |           0      0.00%    100.00% |           0      0.00%    100.00% |           0      0.00%    100.00% |           0      0.00%    100.00%
system.ruby.L1Cache_Controller.S.Ifetch::total     66416376                      
system.ruby.L1Cache_Controller.S.Inv     |         962     17.90%     17.90% |           0      0.00%     17.90% |        1106     20.58%     38.49% |        1129     21.01%     59.50% |        1093     20.34%     79.84% |        1083     20.16%    100.00% |           0      0.00%    100.00% |           0      0.00%    100.00%
system.ruby.L1Cache_Controller.S.Inv::total         5373                      
system.ruby.L1Cache_Controller.S.L1_Replacement |         154     17.36%     17.36% |           0      0.00%     17.36% |         182     20.52%     37.88% |         190     21.42%     59.30% |         187     21.08%     80.38% |         174     19.62%    100.00% |           0      0.00%    100.00% |           0      0.00%    100.00%
system.ruby.L1Cache_Controller.S.L1_Replacement::total          887                      
system.ruby.L1Cache_Controller.E.Load    |    12638842     99.99%     99.99% |           0      0.00%     99.99% |         207      0.00%     99.99% |         229      0.00%    100.00% |         238      0.00%    100.00% |         216      0.00%    100.00% |           0      0.00%    100.00% |           0      0.00%    100.00%
system.ruby.L1Cache_Controller.E.Load::total     12639732                      
system.ruby.L1Cache_Controller.E.Store   |         160    100.00%    100.00% |           0      0.00%    100.00% |           0      0.00%    100.00% |           0      0.00%    100.00% |           0      0.00%    100.00% |           0      0.00%    100.00% |           0      0.00%    100.00% |           0      0.00%    100.00%
system.ruby.L1Cache_Controller.E.Store::total          160                      
system.ruby.L1Cache_Controller.E.Inv     |        3621      0.70%      0.70% |           0      0.00%      0.70% |      127831     24.85%     25.55% |      127874     24.86%     50.41% |      128064     24.89%     75.30% |      127086     24.70%    100.00% |           0      0.00%    100.00% |           0      0.00%    100.00%
system.ruby.L1Cache_Controller.E.Inv::total       514476                      
system.ruby.L1Cache_Controller.E.L1_Replacement |       41255      6.81%      6.81% |           0      0.00%      6.81% |       43387      7.16%     13.96% |       42461      7.01%     20.97% |       43184      7.12%     28.10% |       42220      6.97%     35.06% |           0      0.00%     35.06% |      393603     64.94%    100.00%
system.ruby.L1Cache_Controller.E.L1_Replacement::total       606110                      
system.ruby.L1Cache_Controller.E.Fwd_GETX |           0      0.00%      0.00% |           0      0.00%      0.00% |           1    100.00%    100.00% |           0      0.00%    100.00% |           0      0.00%    100.00% |           0      0.00%    100.00% |           0      0.00%    100.00% |           0      0.00%    100.00%
system.ruby.L1Cache_Controller.E.Fwd_GETX::total            1                      
system.ruby.L1Cache_Controller.E.Fwd_GETS |           0      0.00%      0.00% |           0      0.00%      0.00% |         207     23.10%     23.10% |         238     26.56%     49.67% |         243     27.12%     76.79% |         208     23.21%    100.00% |           0      0.00%    100.00% |           0      0.00%    100.00%
system.ruby.L1Cache_Controller.E.Fwd_GETS::total          896                      
system.ruby.L1Cache_Controller.M.Load    |      826921    100.00%    100.00% |           0      0.00%    100.00% |           7      0.00%    100.00% |           2      0.00%    100.00% |           5      0.00%    100.00% |           0      0.00%    100.00% |           0      0.00%    100.00% |           0      0.00%    100.00%
system.ruby.L1Cache_Controller.M.Load::total       826935                      
system.ruby.L1Cache_Controller.M.Store   |     6753772    100.00%    100.00% |           0      0.00%    100.00% |           0      0.00%    100.00% |           0      0.00%    100.00% |           0      0.00%    100.00% |           0      0.00%    100.00% |           0      0.00%    100.00% |           0      0.00%    100.00%
system.ruby.L1Cache_Controller.M.Store::total      6753772                      
system.ruby.L1Cache_Controller.M.Inv     |         331      0.14%      0.14% |           0      0.00%      0.14% |       59300     25.00%     25.14% |       59092     24.91%     50.04% |       59257     24.98%     75.02% |       59244     24.97%    100.00% |           0      0.00%    100.00% |          10      0.00%    100.00%
system.ruby.L1Cache_Controller.M.Inv::total       237234                      
system.ruby.L1Cache_Controller.M.L1_Replacement |      268215     33.12%     33.12% |           0      0.00%     33.12% |       37318      4.61%     37.72% |       37098      4.58%     42.31% |       37381      4.62%     46.92% |       36298      4.48%     51.40% |           0      0.00%     51.40% |      393586     48.60%    100.00%
system.ruby.L1Cache_Controller.M.L1_Replacement::total       809896                      
system.ruby.L1Cache_Controller.M.Fwd_GETX |           0      0.00%      0.00% |           0      0.00%      0.00% |           0      0.00%      0.00% |           0      0.00%      0.00% |           0      0.00%      0.00% |           0      0.00%      0.00% |           0      0.00%      0.00% |           7    100.00%    100.00%
system.ruby.L1Cache_Controller.M.Fwd_GETX::total            7                      
system.ruby.L1Cache_Controller.M.Fwd_GETS |           0      0.00%      0.00% |           0      0.00%      0.00% |           5     13.89%     13.89% |           7     19.44%     33.33% |          15     41.67%     75.00% |           9     25.00%    100.00% |           0      0.00%    100.00% |           0      0.00%    100.00%
system.ruby.L1Cache_Controller.M.Fwd_GETS::total           36                      
system.ruby.L1Cache_Controller.IS.Inv    |           0      0.00%      0.00% |           0      0.00%      0.00% |          31     20.95%     20.95% |          42     28.38%     49.32% |          38     25.68%     75.00% |          37     25.00%    100.00% |           0      0.00%    100.00% |           0      0.00%    100.00%
system.ruby.L1Cache_Controller.IS.Inv::total          148                      
system.ruby.L1Cache_Controller.IS.L1_Replacement |           0      0.00%      0.00% |           0      0.00%      0.00% |      590150      8.15%      8.15% |      582069      8.04%     16.20% |      585175      8.09%     24.28% |      587158      8.11%     32.40% |           0      0.00%     32.40% |     4892698     67.60%    100.00%
system.ruby.L1Cache_Controller.IS.L1_Replacement::total      7237250                      
system.ruby.L1Cache_Controller.IS.Data_Exclusive |       45240      4.03%      4.03% |           0      0.00%      4.03% |      171426     15.28%     19.31% |      170573     15.20%     34.52% |      171491     15.29%     49.80% |      169514     15.11%     64.91% |           0      0.00%     64.91% |      393603     35.09%    100.00%
system.ruby.L1Cache_Controller.IS.Data_Exclusive::total      1121847                      
system.ruby.L1Cache_Controller.IS.DataS_fromL1 |           0      0.00%      0.00% |           0      0.00%      0.00% |         239     25.45%     25.45% |         253     26.94%     52.40% |         215     22.90%     75.29% |         232     24.71%    100.00% |           0      0.00%    100.00% |           0      0.00%    100.00%
system.ruby.L1Cache_Controller.IS.DataS_fromL1::total          939                      
system.ruby.L1Cache_Controller.IS.Data_all_Acks |        1178     26.47%     26.47% |           0      0.00%     26.47% |         837     18.80%     45.27% |         821     18.45%     63.72% |         807     18.13%     81.85% |         808     18.15%    100.00% |           0      0.00%    100.00% |           0      0.00%    100.00%
system.ruby.L1Cache_Controller.IS.Data_all_Acks::total         4451                      
system.ruby.L1Cache_Controller.IM.L1_Replacement |           0      0.00%      0.00% |           0      0.00%      0.00% |      763261      8.67%      8.67% |      775947      8.81%     17.47% |      773927      8.79%     26.26% |      774925      8.80%     35.06% |           0      0.00%     35.06% |     5720405     64.94%    100.00%
system.ruby.L1Cache_Controller.IM.L1_Replacement::total      8808465                      
system.ruby.L1Cache_Controller.IM.Data_all_Acks |      268400     25.63%     25.63% |           0      0.00%     25.63% |       96623      9.23%     34.86% |       96197      9.19%     44.05% |       96653      9.23%     53.28% |       95551      9.13%     62.41% |           0      0.00%     62.41% |      393603     37.59%    100.00%
system.ruby.L1Cache_Controller.IM.Data_all_Acks::total      1047027                      
system.ruby.L1Cache_Controller.IS_I.L1_Replacement |           0      0.00%      0.00% |           0      0.00%      0.00% |           1     50.00%     50.00% |           0      0.00%     50.00% |           1     50.00%    100.00% |           0      0.00%    100.00% |           0      0.00%    100.00% |           0      0.00%    100.00%
system.ruby.L1Cache_Controller.IS_I.L1_Replacement::total            2                      
system.ruby.L1Cache_Controller.IS_I.Data_all_Acks |           0      0.00%      0.00% |           0      0.00%      0.00% |          31     20.95%     20.95% |          42     28.38%     49.32% |          38     25.68%     75.00% |          37     25.00%    100.00% |           0      0.00%    100.00% |           0      0.00%    100.00%
system.ruby.L1Cache_Controller.IS_I.Data_all_Acks::total          148                      
system.ruby.L1Cache_Controller.M_I.Ifetch |           1    100.00%    100.00% |           0      0.00%    100.00% |           0      0.00%    100.00% |           0      0.00%    100.00% |           0      0.00%    100.00% |           0      0.00%    100.00% |           0      0.00%    100.00% |           0      0.00%    100.00%
system.ruby.L1Cache_Controller.M_I.Ifetch::total            1                      
system.ruby.L1Cache_Controller.M_I.Inv   |           0      0.00%      0.00% |           0      0.00%      0.00% |       23736     24.94%     24.94% |       23637     24.83%     49.77% |       24084     25.30%     75.07% |       23724     24.93%    100.00% |           0      0.00%    100.00% |           0      0.00%    100.00%
system.ruby.L1Cache_Controller.M_I.Inv::total        95181                      
system.ruby.L1Cache_Controller.M_I.Fwd_GETS |           0      0.00%      0.00% |           0      0.00%      0.00% |           3     42.86%     42.86% |           1     14.29%     57.14% |           0      0.00%     57.14% |           3     42.86%    100.00% |           0      0.00%    100.00% |           0      0.00%    100.00%
system.ruby.L1Cache_Controller.M_I.Fwd_GETS::total            7                      
system.ruby.L1Cache_Controller.M_I.WB_Ack |      309470     23.43%     23.43% |           0      0.00%     23.43% |       56966      4.31%     27.74% |       55921      4.23%     31.98% |       56481      4.28%     36.25% |       54791      4.15%     40.40% |           0      0.00%     40.40% |      787189     59.60%    100.00%
system.ruby.L1Cache_Controller.M_I.WB_Ack::total      1320818                      
system.ruby.L1Cache_Controller.SINK_WB_ACK.Load |           0      0.00%      0.00% |           0      0.00%      0.00% |           0      0.00%      0.00% |           1    100.00%    100.00% |           0      0.00%    100.00% |           0      0.00%    100.00% |           0      0.00%    100.00% |           0      0.00%    100.00%
system.ruby.L1Cache_Controller.SINK_WB_ACK.Load::total            1                      
system.ruby.L1Cache_Controller.SINK_WB_ACK.WB_Ack |           0      0.00%      0.00% |           0      0.00%      0.00% |       23739     24.94%     24.94% |       23638     24.83%     49.77% |       24084     25.30%     75.07% |       23727     24.93%    100.00% |           0      0.00%    100.00% |           0      0.00%    100.00%
system.ruby.L1Cache_Controller.SINK_WB_ACK.WB_Ack::total        95188                      
system.ruby.L2Cache_Controller.L1_GET_INSTR         1322      0.00%      0.00%
system.ruby.L2Cache_Controller.L1_GETS        1126151      0.00%      0.00%
system.ruby.L2Cache_Controller.L1_GETX        1047027      0.00%      0.00%
system.ruby.L2Cache_Controller.L1_PUTX        1320831      0.00%      0.00%
system.ruby.L2Cache_Controller.L1_PUTX_old       113424      0.00%      0.00%
system.ruby.L2Cache_Controller.L2_Replacement       759243      0.00%      0.00%
system.ruby.L2Cache_Controller.L2_Replacement_clean      2329842      0.00%      0.00%
system.ruby.L2Cache_Controller.Mem_Data       2158930      0.00%      0.00%
system.ruby.L2Cache_Controller.Mem_Ack        2156965      0.00%      0.00%
system.ruby.L2Cache_Controller.WB_Data         286007      0.00%      0.00%
system.ruby.L2Cache_Controller.WB_Data_clean        47347      0.00%      0.00%
system.ruby.L2Cache_Controller.Ack               2684      0.00%      0.00%
system.ruby.L2Cache_Controller.Ack_all         518164      0.00%      0.00%
system.ruby.L2Cache_Controller.Unblock            939      0.00%      0.00%
system.ruby.L2Cache_Controller.Exclusive_Unblock      2168874      0.00%      0.00%
system.ruby.L2Cache_Controller.NP.L1_GET_INSTR         1184      0.00%      0.00%
system.ruby.L2Cache_Controller.NP.L1_GETS      1112891      0.00%      0.00%
system.ruby.L2Cache_Controller.NP.L1_GETX      1044855      0.00%      0.00%
system.ruby.L2Cache_Controller.NP.L1_PUTX_old        77805      0.00%      0.00%
system.ruby.L2Cache_Controller.SS.L1_GET_INSTR          127      0.00%      0.00%
system.ruby.L2Cache_Controller.SS.L1_GETS            5      0.00%      0.00%
system.ruby.L2Cache_Controller.SS.L1_PUTX            7      0.00%      0.00%
system.ruby.L2Cache_Controller.SS.L2_Replacement           37      0.00%      0.00%
system.ruby.L2Cache_Controller.SS.L2_Replacement_clean         3651      0.00%      0.00%
system.ruby.L2Cache_Controller.M.L1_GET_INSTR            1      0.00%      0.00%
system.ruby.L2Cache_Controller.M.L1_GETS        10592      0.00%      0.00%
system.ruby.L2Cache_Controller.M.L1_GETX         2164      0.00%      0.00%
system.ruby.L2Cache_Controller.M.L2_Replacement       758927      0.00%      0.00%
system.ruby.L2Cache_Controller.M.L2_Replacement_clean       547459      0.00%      0.00%
system.ruby.L2Cache_Controller.MT.L1_GETS          939      0.00%      0.00%
system.ruby.L2Cache_Controller.MT.L1_GETX            8      0.00%      0.00%
system.ruby.L2Cache_Controller.MT.L1_PUTX      1320818      0.00%      0.00%
system.ruby.L2Cache_Controller.MT.L2_Replacement          277      0.00%      0.00%
system.ruby.L2Cache_Controller.MT.L2_Replacement_clean       846614      0.00%      0.00%
system.ruby.L2Cache_Controller.M_I.L1_GETS           37      0.00%      0.00%
system.ruby.L2Cache_Controller.M_I.L1_PUTX_old        17373      0.00%      0.00%
system.ruby.L2Cache_Controller.M_I.Mem_Ack      2156965      0.00%      0.00%
system.ruby.L2Cache_Controller.MT_I.L1_PUTX_old            6      0.00%      0.00%
system.ruby.L2Cache_Controller.MT_I.WB_Data          266      0.00%      0.00%
system.ruby.L2Cache_Controller.MT_I.Ack_all           11      0.00%      0.00%
system.ruby.L2Cache_Controller.MCT_I.L1_GETS           28      0.00%      0.00%
system.ruby.L2Cache_Controller.MCT_I.L1_PUTX_old        18237      0.00%      0.00%
system.ruby.L2Cache_Controller.MCT_I.WB_Data       285704      0.00%      0.00%
system.ruby.L2Cache_Controller.MCT_I.WB_Data_clean        46445      0.00%      0.00%
system.ruby.L2Cache_Controller.MCT_I.Ack_all       514465      0.00%      0.00%
system.ruby.L2Cache_Controller.I_I.Ack           2643      0.00%      0.00%
system.ruby.L2Cache_Controller.I_I.Ack_all         3651      0.00%      0.00%
system.ruby.L2Cache_Controller.S_I.Ack             41      0.00%      0.00%
system.ruby.L2Cache_Controller.S_I.Ack_all           37      0.00%      0.00%
system.ruby.L2Cache_Controller.ISS.L1_GETS         1636      0.00%      0.00%
system.ruby.L2Cache_Controller.ISS.L1_PUTX_old            3      0.00%      0.00%
system.ruby.L2Cache_Controller.ISS.L2_Replacement_clean       555876      0.00%      0.00%
system.ruby.L2Cache_Controller.ISS.Mem_Data      1111255      0.00%      0.00%
system.ruby.L2Cache_Controller.IS.L1_GET_INSTR           10      0.00%      0.00%
system.ruby.L2Cache_Controller.IS.L2_Replacement_clean         1487      0.00%      0.00%
system.ruby.L2Cache_Controller.IS.Mem_Data         2820      0.00%      0.00%
system.ruby.L2Cache_Controller.IM.L2_Replacement_clean       360022      0.00%      0.00%
system.ruby.L2Cache_Controller.IM.Mem_Data      1044855      0.00%      0.00%
system.ruby.L2Cache_Controller.MT_MB.L1_GETS           23      0.00%      0.00%
system.ruby.L2Cache_Controller.MT_MB.L2_Replacement            2      0.00%      0.00%
system.ruby.L2Cache_Controller.MT_MB.L2_Replacement_clean        14726      0.00%      0.00%
system.ruby.L2Cache_Controller.MT_MB.Exclusive_Unblock      2168874      0.00%      0.00%
system.ruby.L2Cache_Controller.MT_IIB.L1_PUTX            6      0.00%      0.00%
system.ruby.L2Cache_Controller.MT_IIB.L2_Replacement_clean            7      0.00%      0.00%
system.ruby.L2Cache_Controller.MT_IIB.WB_Data_clean           44      0.00%      0.00%
system.ruby.L2Cache_Controller.MT_IIB.Unblock          895      0.00%      0.00%
system.ruby.L2Cache_Controller.MT_IB.WB_Data           37      0.00%      0.00%
system.ruby.L2Cache_Controller.MT_IB.WB_Data_clean          858      0.00%      0.00%
system.ruby.L2Cache_Controller.MT_SB.Unblock           44      0.00%      0.00%

---------- End Simulation Statistics   ----------
