
---------- Begin Simulation Statistics ----------
sim_seconds                                  0.145877                       # Number of seconds simulated
sim_ticks                                145877249000                       # Number of ticks simulated
final_tick                               145884452500                       # Number of ticks from beginning of simulation (restored from checkpoints and never reset)
sim_freq                                 1000000000000                       # Frequency of simulated ticks
host_inst_rate                                  22802                       # Simulator instruction rate (inst/s)
host_op_rate                                    38077                       # Simulator op (including micro ops) rate (op/s)
host_tick_rate                               64747220                       # Simulator tick rate (ticks/s)
host_mem_usage                                1680596                       # Number of bytes of host memory used
host_seconds                                  2253.03                       # Real time elapsed on the host
sim_insts                                    51374534                       # Number of instructions simulated
sim_ops                                      85788684                       # Number of ops (including micro ops) simulated
system.voltage_domain.voltage                       1                       # Voltage in Volts
system.clk_domain.clock                          1000                       # Clock period in ticks
system.mem_ctrls.bytes_read::ruby.dir_cntrl0    276185472                       # Number of bytes read from this memory
system.mem_ctrls.bytes_read::total          276185472                       # Number of bytes read from this memory
system.mem_ctrls.bytes_written::ruby.dir_cntrl0    133783168                       # Number of bytes written to this memory
system.mem_ctrls.bytes_written::total       133783168                       # Number of bytes written to this memory
system.mem_ctrls.num_reads::ruby.dir_cntrl0      2157699                       # Number of read requests responded to by this memory
system.mem_ctrls.num_reads::total             2157699                       # Number of read requests responded to by this memory
system.mem_ctrls.num_writes::ruby.dir_cntrl0      1045181                       # Number of write requests responded to by this memory
system.mem_ctrls.num_writes::total            1045181                       # Number of write requests responded to by this memory
system.mem_ctrls.bw_read::ruby.dir_cntrl0   1893273104                       # Total read bandwidth from this memory (bytes/s)
system.mem_ctrls.bw_read::total            1893273104                       # Total read bandwidth from this memory (bytes/s)
system.mem_ctrls.bw_write::ruby.dir_cntrl0    917094125                       # Write bandwidth from this memory (bytes/s)
system.mem_ctrls.bw_write::total            917094125                       # Write bandwidth from this memory (bytes/s)
system.mem_ctrls.bw_total::ruby.dir_cntrl0   2810367229                       # Total bandwidth to/from this memory (bytes/s)
system.mem_ctrls.bw_total::total           2810367229                       # Total bandwidth to/from this memory (bytes/s)
system.mem_ctrls.readReqs                     2157699                       # Number of read requests accepted
system.mem_ctrls.writeReqs                    1045181                       # Number of write requests accepted
system.mem_ctrls.readBursts                   4315398                       # Number of DRAM read bursts, including those serviced by the write queue
system.mem_ctrls.writeBursts                  2090362                       # Number of DRAM write bursts, including those merged in the write queue
system.mem_ctrls.bytesReadDRAM              275975488                       # Total number of bytes read from DRAM
system.mem_ctrls.bytesReadWrQ                  209984                       # Total number of bytes read from write queue
system.mem_ctrls.bytesWritten               133777408                       # Total number of bytes written to DRAM
system.mem_ctrls.bytesReadSys               276185472                       # Total read bytes from the system interface side
system.mem_ctrls.bytesWrittenSys            133783168                       # Total written bytes from the system interface side
system.mem_ctrls.servicedByWrQ                   3281                       # Number of DRAM read bursts serviced by the write queue
system.mem_ctrls.mergedWrBursts                    65                       # Number of DRAM write bursts merged with an existing one
system.mem_ctrls.neitherReadNorWriteReqs            0                       # Number of requests that are neither read nor write
system.mem_ctrls.perBankRdBursts::0            267450                       # Per bank write bursts
system.mem_ctrls.perBankRdBursts::1            267239                       # Per bank write bursts
system.mem_ctrls.perBankRdBursts::2            270958                       # Per bank write bursts
system.mem_ctrls.perBankRdBursts::3            270201                       # Per bank write bursts
system.mem_ctrls.perBankRdBursts::4            266575                       # Per bank write bursts
system.mem_ctrls.perBankRdBursts::5            266499                       # Per bank write bursts
system.mem_ctrls.perBankRdBursts::6            264517                       # Per bank write bursts
system.mem_ctrls.perBankRdBursts::7            253884                       # Per bank write bursts
system.mem_ctrls.perBankRdBursts::8            264023                       # Per bank write bursts
system.mem_ctrls.perBankRdBursts::9            258174                       # Per bank write bursts
system.mem_ctrls.perBankRdBursts::10           292415                       # Per bank write bursts
system.mem_ctrls.perBankRdBursts::11           303495                       # Per bank write bursts
system.mem_ctrls.perBankRdBursts::12           266700                       # Per bank write bursts
system.mem_ctrls.perBankRdBursts::13           266593                       # Per bank write bursts
system.mem_ctrls.perBankRdBursts::14           266550                       # Per bank write bursts
system.mem_ctrls.perBankRdBursts::15           266844                       # Per bank write bursts
system.mem_ctrls.perBankWrBursts::0            131584                       # Per bank write bursts
system.mem_ctrls.perBankWrBursts::1            131804                       # Per bank write bursts
system.mem_ctrls.perBankWrBursts::2            131786                       # Per bank write bursts
system.mem_ctrls.perBankWrBursts::3            131842                       # Per bank write bursts
system.mem_ctrls.perBankWrBursts::4            131642                       # Per bank write bursts
system.mem_ctrls.perBankWrBursts::5            131702                       # Per bank write bursts
system.mem_ctrls.perBankWrBursts::6            131706                       # Per bank write bursts
system.mem_ctrls.perBankWrBursts::7            131644                       # Per bank write bursts
system.mem_ctrls.perBankWrBursts::8            131607                       # Per bank write bursts
system.mem_ctrls.perBankWrBursts::9            123462                       # Per bank write bursts
system.mem_ctrls.perBankWrBursts::10           122888                       # Per bank write bursts
system.mem_ctrls.perBankWrBursts::11           132002                       # Per bank write bursts
system.mem_ctrls.perBankWrBursts::12           131722                       # Per bank write bursts
system.mem_ctrls.perBankWrBursts::13           131612                       # Per bank write bursts
system.mem_ctrls.perBankWrBursts::14           131614                       # Per bank write bursts
system.mem_ctrls.perBankWrBursts::15           131655                       # Per bank write bursts
system.mem_ctrls.numRdRetry                   1556934                       # Number of times read queue was full causing retry
system.mem_ctrls.numWrRetry                     16782                       # Number of times write queue was full causing retry
system.mem_ctrls.totGap                  145877429500                       # Total gap between requests
system.mem_ctrls.readPktSize::0                     0                       # Read request sizes (log2)
system.mem_ctrls.readPktSize::1                     0                       # Read request sizes (log2)
system.mem_ctrls.readPktSize::2                     0                       # Read request sizes (log2)
system.mem_ctrls.readPktSize::3                     0                       # Read request sizes (log2)
system.mem_ctrls.readPktSize::4                     0                       # Read request sizes (log2)
system.mem_ctrls.readPktSize::5                     0                       # Read request sizes (log2)
system.mem_ctrls.readPktSize::6               4315398                       # Read request sizes (log2)
system.mem_ctrls.writePktSize::0                    0                       # Write request sizes (log2)
system.mem_ctrls.writePktSize::1                    0                       # Write request sizes (log2)
system.mem_ctrls.writePktSize::2                    0                       # Write request sizes (log2)
system.mem_ctrls.writePktSize::3                    0                       # Write request sizes (log2)
system.mem_ctrls.writePktSize::4                    0                       # Write request sizes (log2)
system.mem_ctrls.writePktSize::5                    0                       # Write request sizes (log2)
system.mem_ctrls.writePktSize::6              2090362                       # Write request sizes (log2)
system.mem_ctrls.rdQLenPdf::0                  333277                       # What read queue length does an incoming req see
system.mem_ctrls.rdQLenPdf::1                  342606                       # What read queue length does an incoming req see
system.mem_ctrls.rdQLenPdf::2                   82382                       # What read queue length does an incoming req see
system.mem_ctrls.rdQLenPdf::3                  105849                       # What read queue length does an incoming req see
system.mem_ctrls.rdQLenPdf::4                  164640                       # What read queue length does an incoming req see
system.mem_ctrls.rdQLenPdf::5                  187819                       # What read queue length does an incoming req see
system.mem_ctrls.rdQLenPdf::6                  202561                       # What read queue length does an incoming req see
system.mem_ctrls.rdQLenPdf::7                  190977                       # What read queue length does an incoming req see
system.mem_ctrls.rdQLenPdf::8                  152302                       # What read queue length does an incoming req see
system.mem_ctrls.rdQLenPdf::9                  133519                       # What read queue length does an incoming req see
system.mem_ctrls.rdQLenPdf::10                 115429                       # What read queue length does an incoming req see
system.mem_ctrls.rdQLenPdf::11                 106088                       # What read queue length does an incoming req see
system.mem_ctrls.rdQLenPdf::12                  85774                       # What read queue length does an incoming req see
system.mem_ctrls.rdQLenPdf::13                  76992                       # What read queue length does an incoming req see
system.mem_ctrls.rdQLenPdf::14                  53855                       # What read queue length does an incoming req see
system.mem_ctrls.rdQLenPdf::15                  51677                       # What read queue length does an incoming req see
system.mem_ctrls.rdQLenPdf::16                  17141                       # What read queue length does an incoming req see
system.mem_ctrls.rdQLenPdf::17                  18237                       # What read queue length does an incoming req see
system.mem_ctrls.rdQLenPdf::18                  18342                       # What read queue length does an incoming req see
system.mem_ctrls.rdQLenPdf::19                  19485                       # What read queue length does an incoming req see
system.mem_ctrls.rdQLenPdf::20                  20355                       # What read queue length does an incoming req see
system.mem_ctrls.rdQLenPdf::21                  21762                       # What read queue length does an incoming req see
system.mem_ctrls.rdQLenPdf::22                  22125                       # What read queue length does an incoming req see
system.mem_ctrls.rdQLenPdf::23                  23241                       # What read queue length does an incoming req see
system.mem_ctrls.rdQLenPdf::24                  23773                       # What read queue length does an incoming req see
system.mem_ctrls.rdQLenPdf::25                  25020                       # What read queue length does an incoming req see
system.mem_ctrls.rdQLenPdf::26                  25387                       # What read queue length does an incoming req see
system.mem_ctrls.rdQLenPdf::27                  26339                       # What read queue length does an incoming req see
system.mem_ctrls.rdQLenPdf::28                  26748                       # What read queue length does an incoming req see
system.mem_ctrls.rdQLenPdf::29                  27407                       # What read queue length does an incoming req see
system.mem_ctrls.rdQLenPdf::30                 811980                       # What read queue length does an incoming req see
system.mem_ctrls.rdQLenPdf::31                 799028                       # What read queue length does an incoming req see
system.mem_ctrls.wrQLenPdf::0                       1                       # What write queue length does an incoming req see
system.mem_ctrls.wrQLenPdf::1                       1                       # What write queue length does an incoming req see
system.mem_ctrls.wrQLenPdf::2                       1                       # What write queue length does an incoming req see
system.mem_ctrls.wrQLenPdf::3                       1                       # What write queue length does an incoming req see
system.mem_ctrls.wrQLenPdf::4                       1                       # What write queue length does an incoming req see
system.mem_ctrls.wrQLenPdf::5                       1                       # What write queue length does an incoming req see
system.mem_ctrls.wrQLenPdf::6                       1                       # What write queue length does an incoming req see
system.mem_ctrls.wrQLenPdf::7                       1                       # What write queue length does an incoming req see
system.mem_ctrls.wrQLenPdf::8                       1                       # What write queue length does an incoming req see
system.mem_ctrls.wrQLenPdf::9                       1                       # What write queue length does an incoming req see
system.mem_ctrls.wrQLenPdf::10                      1                       # What write queue length does an incoming req see
system.mem_ctrls.wrQLenPdf::11                      1                       # What write queue length does an incoming req see
system.mem_ctrls.wrQLenPdf::12                      1                       # What write queue length does an incoming req see
system.mem_ctrls.wrQLenPdf::13                      1                       # What write queue length does an incoming req see
system.mem_ctrls.wrQLenPdf::14                      1                       # What write queue length does an incoming req see
system.mem_ctrls.wrQLenPdf::15                   1191                       # What write queue length does an incoming req see
system.mem_ctrls.wrQLenPdf::16                   1427                       # What write queue length does an incoming req see
system.mem_ctrls.wrQLenPdf::17                  33708                       # What write queue length does an incoming req see
system.mem_ctrls.wrQLenPdf::18                  34658                       # What write queue length does an incoming req see
system.mem_ctrls.wrQLenPdf::19                  35976                       # What write queue length does an incoming req see
system.mem_ctrls.wrQLenPdf::20                  41261                       # What write queue length does an incoming req see
system.mem_ctrls.wrQLenPdf::21                  48792                       # What write queue length does an incoming req see
system.mem_ctrls.wrQLenPdf::22                  60071                       # What write queue length does an incoming req see
system.mem_ctrls.wrQLenPdf::23                  70904                       # What write queue length does an incoming req see
system.mem_ctrls.wrQLenPdf::24                  81120                       # What write queue length does an incoming req see
system.mem_ctrls.wrQLenPdf::25                  89129                       # What write queue length does an incoming req see
system.mem_ctrls.wrQLenPdf::26                  98041                       # What write queue length does an incoming req see
system.mem_ctrls.wrQLenPdf::27                 102118                       # What write queue length does an incoming req see
system.mem_ctrls.wrQLenPdf::28                 108240                       # What write queue length does an incoming req see
system.mem_ctrls.wrQLenPdf::29                 110632                       # What write queue length does an incoming req see
system.mem_ctrls.wrQLenPdf::30                 113290                       # What write queue length does an incoming req see
system.mem_ctrls.wrQLenPdf::31                 111424                       # What write queue length does an incoming req see
system.mem_ctrls.wrQLenPdf::32                 111525                       # What write queue length does an incoming req see
system.mem_ctrls.wrQLenPdf::33                  61165                       # What write queue length does an incoming req see
system.mem_ctrls.wrQLenPdf::34                  23907                       # What write queue length does an incoming req see
system.mem_ctrls.wrQLenPdf::35                  13583                       # What write queue length does an incoming req see
system.mem_ctrls.wrQLenPdf::36                   9019                       # What write queue length does an incoming req see
system.mem_ctrls.wrQLenPdf::37                   6933                       # What write queue length does an incoming req see
system.mem_ctrls.wrQLenPdf::38                   5224                       # What write queue length does an incoming req see
system.mem_ctrls.wrQLenPdf::39                   7399                       # What write queue length does an incoming req see
system.mem_ctrls.wrQLenPdf::40                   7337                       # What write queue length does an incoming req see
system.mem_ctrls.wrQLenPdf::41                  10628                       # What write queue length does an incoming req see
system.mem_ctrls.wrQLenPdf::42                  11353                       # What write queue length does an incoming req see
system.mem_ctrls.wrQLenPdf::43                  15708                       # What write queue length does an incoming req see
system.mem_ctrls.wrQLenPdf::44                  16856                       # What write queue length does an incoming req see
system.mem_ctrls.wrQLenPdf::45                  22250                       # What write queue length does an incoming req see
system.mem_ctrls.wrQLenPdf::46                  23777                       # What write queue length does an incoming req see
system.mem_ctrls.wrQLenPdf::47                  29930                       # What write queue length does an incoming req see
system.mem_ctrls.wrQLenPdf::48                  31927                       # What write queue length does an incoming req see
system.mem_ctrls.wrQLenPdf::49                  38238                       # What write queue length does an incoming req see
system.mem_ctrls.wrQLenPdf::50                  41209                       # What write queue length does an incoming req see
system.mem_ctrls.wrQLenPdf::51                  48053                       # What write queue length does an incoming req see
system.mem_ctrls.wrQLenPdf::52                  52345                       # What write queue length does an incoming req see
system.mem_ctrls.wrQLenPdf::53                  60577                       # What write queue length does an incoming req see
system.mem_ctrls.wrQLenPdf::54                  69654                       # What write queue length does an incoming req see
system.mem_ctrls.wrQLenPdf::55                  55762                       # What write queue length does an incoming req see
system.mem_ctrls.wrQLenPdf::56                  47701                       # What write queue length does an incoming req see
system.mem_ctrls.wrQLenPdf::57                  33869                       # What write queue length does an incoming req see
system.mem_ctrls.wrQLenPdf::58                  26303                       # What write queue length does an incoming req see
system.mem_ctrls.wrQLenPdf::59                  17371                       # What write queue length does an incoming req see
system.mem_ctrls.wrQLenPdf::60                  13055                       # What write queue length does an incoming req see
system.mem_ctrls.wrQLenPdf::61                   8569                       # What write queue length does an incoming req see
system.mem_ctrls.wrQLenPdf::62                  15841                       # What write queue length does an incoming req see
system.mem_ctrls.wrQLenPdf::63                  11232                       # What write queue length does an incoming req see
system.mem_ctrls.bytesPerActivate::samples      1536419                       # Bytes accessed per row activation
system.mem_ctrls.bytesPerActivate::mean    266.695124                       # Bytes accessed per row activation
system.mem_ctrls.bytesPerActivate::gmean   191.376921                       # Bytes accessed per row activation
system.mem_ctrls.bytesPerActivate::stdev   281.909671                       # Bytes accessed per row activation
system.mem_ctrls.bytesPerActivate::0-127        36114      2.35%      2.35% # Bytes accessed per row activation
system.mem_ctrls.bytesPerActivate::128-255       991281     64.52%     66.87% # Bytes accessed per row activation
system.mem_ctrls.bytesPerActivate::256-383       268291     17.46%     84.33% # Bytes accessed per row activation
system.mem_ctrls.bytesPerActivate::384-511        20719      1.35%     85.68% # Bytes accessed per row activation
system.mem_ctrls.bytesPerActivate::512-639        20580      1.34%     87.02% # Bytes accessed per row activation
system.mem_ctrls.bytesPerActivate::640-767        16326      1.06%     88.08% # Bytes accessed per row activation
system.mem_ctrls.bytesPerActivate::768-895        14718      0.96%     89.04% # Bytes accessed per row activation
system.mem_ctrls.bytesPerActivate::896-1023        16169      1.05%     90.09% # Bytes accessed per row activation
system.mem_ctrls.bytesPerActivate::1024-1151       152221      9.91%    100.00% # Bytes accessed per row activation
system.mem_ctrls.bytesPerActivate::total      1536419                       # Bytes accessed per row activation
system.mem_ctrls.rdPerTurnAround::samples       130278                       # Reads before turning the bus around for writes
system.mem_ctrls.rdPerTurnAround::mean      33.091259                       # Reads before turning the bus around for writes
system.mem_ctrls.rdPerTurnAround::gmean     22.516995                       # Reads before turning the bus around for writes
system.mem_ctrls.rdPerTurnAround::stdev    115.742722                       # Reads before turning the bus around for writes
system.mem_ctrls.rdPerTurnAround::0-1023       129830     99.66%     99.66% # Reads before turning the bus around for writes
system.mem_ctrls.rdPerTurnAround::1024-2047          442      0.34%    100.00% # Reads before turning the bus around for writes
system.mem_ctrls.rdPerTurnAround::2048-3071            2      0.00%    100.00% # Reads before turning the bus around for writes
system.mem_ctrls.rdPerTurnAround::3072-4095            1      0.00%    100.00% # Reads before turning the bus around for writes
system.mem_ctrls.rdPerTurnAround::7168-8191            2      0.00%    100.00% # Reads before turning the bus around for writes
system.mem_ctrls.rdPerTurnAround::23552-24575            1      0.00%    100.00% # Reads before turning the bus around for writes
system.mem_ctrls.rdPerTurnAround::total        130278                       # Reads before turning the bus around for writes
system.mem_ctrls.wrPerTurnAround::samples       130278                       # Writes before turning the bus around for reads
system.mem_ctrls.wrPerTurnAround::mean      16.044704                       # Writes before turning the bus around for reads
system.mem_ctrls.wrPerTurnAround::gmean     16.036941                       # Writes before turning the bus around for reads
system.mem_ctrls.wrPerTurnAround::stdev      0.612647                       # Writes before turning the bus around for reads
system.mem_ctrls.wrPerTurnAround::16           128717     98.80%     98.80% # Writes before turning the bus around for reads
system.mem_ctrls.wrPerTurnAround::17               49      0.04%     98.84% # Writes before turning the bus around for reads
system.mem_ctrls.wrPerTurnAround::18             1158      0.89%     99.73% # Writes before turning the bus around for reads
system.mem_ctrls.wrPerTurnAround::19               29      0.02%     99.75% # Writes before turning the bus around for reads
system.mem_ctrls.wrPerTurnAround::20               47      0.04%     99.79% # Writes before turning the bus around for reads
system.mem_ctrls.wrPerTurnAround::21               20      0.02%     99.80% # Writes before turning the bus around for reads
system.mem_ctrls.wrPerTurnAround::22               43      0.03%     99.83% # Writes before turning the bus around for reads
system.mem_ctrls.wrPerTurnAround::23               10      0.01%     99.84% # Writes before turning the bus around for reads
system.mem_ctrls.wrPerTurnAround::24               44      0.03%     99.88% # Writes before turning the bus around for reads
system.mem_ctrls.wrPerTurnAround::25                2      0.00%     99.88% # Writes before turning the bus around for reads
system.mem_ctrls.wrPerTurnAround::26               17      0.01%     99.89% # Writes before turning the bus around for reads
system.mem_ctrls.wrPerTurnAround::27                6      0.00%     99.90% # Writes before turning the bus around for reads
system.mem_ctrls.wrPerTurnAround::28               33      0.03%     99.92% # Writes before turning the bus around for reads
system.mem_ctrls.wrPerTurnAround::29               10      0.01%     99.93% # Writes before turning the bus around for reads
system.mem_ctrls.wrPerTurnAround::30               20      0.02%     99.94% # Writes before turning the bus around for reads
system.mem_ctrls.wrPerTurnAround::31                1      0.00%     99.94% # Writes before turning the bus around for reads
system.mem_ctrls.wrPerTurnAround::32               27      0.02%     99.97% # Writes before turning the bus around for reads
system.mem_ctrls.wrPerTurnAround::33                4      0.00%     99.97% # Writes before turning the bus around for reads
system.mem_ctrls.wrPerTurnAround::34               10      0.01%     99.98% # Writes before turning the bus around for reads
system.mem_ctrls.wrPerTurnAround::35                3      0.00%     99.98% # Writes before turning the bus around for reads
system.mem_ctrls.wrPerTurnAround::36               11      0.01%     99.99% # Writes before turning the bus around for reads
system.mem_ctrls.wrPerTurnAround::37                3      0.00%     99.99% # Writes before turning the bus around for reads
system.mem_ctrls.wrPerTurnAround::38               13      0.01%    100.00% # Writes before turning the bus around for reads
system.mem_ctrls.wrPerTurnAround::39                1      0.00%    100.00% # Writes before turning the bus around for reads
system.mem_ctrls.wrPerTurnAround::total        130278                       # Writes before turning the bus around for reads
system.mem_ctrls.totQLat                 555123087879                       # Total ticks spent queuing
system.mem_ctrls.totMemAccLat            635975281629                       # Total ticks spent from burst creation until serviced by the DRAM
system.mem_ctrls.totBusLat                21560585000                       # Total ticks spent in databus transfers
system.mem_ctrls.avgQLat                    128735.63                       # Average queueing delay per DRAM burst
system.mem_ctrls.avgBusLat                    5000.00                       # Average bus latency per DRAM burst
system.mem_ctrls.avgMemAccLat               147485.63                       # Average memory access latency per DRAM burst
system.mem_ctrls.avgRdBW                      1891.83                       # Average DRAM read bandwidth in MiByte/s
system.mem_ctrls.avgWrBW                       917.05                       # Average achieved write bandwidth in MiByte/s
system.mem_ctrls.avgRdBWSys                   1893.27                       # Average system read bandwidth in MiByte/s
system.mem_ctrls.avgWrBWSys                    917.09                       # Average system write bandwidth in MiByte/s
system.mem_ctrls.peakBW                      12800.00                       # Theoretical peak bandwidth in MiByte/s
system.mem_ctrls.busUtil                        21.94                       # Data bus utilization in percentage
system.mem_ctrls.busUtilRead                    14.78                       # Data bus utilization in percentage for reads
system.mem_ctrls.busUtilWrite                    7.16                       # Data bus utilization in percentage for writes
system.mem_ctrls.avgRdQLen                       6.20                       # Average read queue length when enqueuing
system.mem_ctrls.avgWrQLen                      29.83                       # Average write queue length when enqueuing
system.mem_ctrls.readRowHits                  3201608                       # Number of row buffer hits during reads
system.mem_ctrls.writeRowHits                 1664370                       # Number of row buffer hits during writes
system.mem_ctrls.readRowHitRate                 74.25                       # Row buffer hit rate for reads
system.mem_ctrls.writeRowHitRate                79.62                       # Row buffer hit rate for writes
system.mem_ctrls.avgGap                      45545.71                       # Average gap between requests
system.mem_ctrls.pageHitRate                    76.00                       # Row buffer hit rate, read and write combined
system.mem_ctrls_0.actEnergy               5725656720                       # Energy for activate commands per rank (pJ)
system.mem_ctrls_0.preEnergy               3124118250                       # Energy for precharge commands per rank (pJ)
system.mem_ctrls_0.readEnergy             16593727800                       # Energy for read commands per rank (pJ)
system.mem_ctrls_0.writeEnergy             6828040800                       # Energy for write commands per rank (pJ)
system.mem_ctrls_0.refreshEnergy           9528380160                       # Energy for refresh commands per rank (pJ)
system.mem_ctrls_0.actBackEnergy          69249445920                       # Energy for active background per rank (pJ)
system.mem_ctrls_0.preBackEnergy          26784936000                       # Energy for precharge background per rank (pJ)
system.mem_ctrls_0.totalEnergy           137834305650                       # Total energy per rank (pJ)
system.mem_ctrls_0.averagePower            944.824893                       # Core power per rank (mW)
system.mem_ctrls_0.memoryStateTime::IDLE  43887412307                       # Time in different power states
system.mem_ctrls_0.memoryStateTime::REF    4871360000                       # Time in different power states
system.mem_ctrls_0.memoryStateTime::PRE_PDN            0                       # Time in different power states
system.mem_ctrls_0.memoryStateTime::ACT   97124672443                       # Time in different power states
system.mem_ctrls_0.memoryStateTime::ACT_PDN            0                       # Time in different power states
system.mem_ctrls_1.actEnergy               5889776760                       # Energy for activate commands per rank (pJ)
system.mem_ctrls_1.preEnergy               3213667875                       # Energy for precharge commands per rank (pJ)
system.mem_ctrls_1.readEnergy             17041923600                       # Energy for read commands per rank (pJ)
system.mem_ctrls_1.writeEnergy             6716921760                       # Energy for write commands per rank (pJ)
system.mem_ctrls_1.refreshEnergy           9528380160                       # Energy for refresh commands per rank (pJ)
system.mem_ctrls_1.actBackEnergy          67611933675                       # Energy for active background per rank (pJ)
system.mem_ctrls_1.preBackEnergy          28221350250                       # Energy for precharge background per rank (pJ)
system.mem_ctrls_1.totalEnergy           138223954080                       # Total energy per rank (pJ)
system.mem_ctrls_1.averagePower            947.495851                       # Core power per rank (mW)
system.mem_ctrls_1.memoryStateTime::IDLE  46271650805                       # Time in different power states
system.mem_ctrls_1.memoryStateTime::REF    4871360000                       # Time in different power states
system.mem_ctrls_1.memoryStateTime::PRE_PDN            0                       # Time in different power states
system.mem_ctrls_1.memoryStateTime::ACT   94740586195                       # Time in different power states
system.mem_ctrls_1.memoryStateTime::ACT_PDN            0                       # Time in different power states
system.ruby_clk_domain.clock                      500                       # Clock period in ticks
system.ruby.phys_mem.bytes_read::gpu.ce      50380812                       # Number of bytes read from this memory
system.ruby.phys_mem.bytes_read::gpu.shader_cores0.data      9750592                       # Number of bytes read from this memory
system.ruby.phys_mem.bytes_read::gpu.shader_cores0.inst          576                       # Number of bytes read from this memory
system.ruby.phys_mem.bytes_read::gpu.shader_cores1.data      9746496                       # Number of bytes read from this memory
system.ruby.phys_mem.bytes_read::gpu.shader_cores1.inst          576                       # Number of bytes read from this memory
system.ruby.phys_mem.bytes_read::gpu.shader_cores2.data      9770816                       # Number of bytes read from this memory
system.ruby.phys_mem.bytes_read::gpu.shader_cores2.inst          576                       # Number of bytes read from this memory
system.ruby.phys_mem.bytes_read::gpu.shader_cores3.data      9791552                       # Number of bytes read from this memory
system.ruby.phys_mem.bytes_read::gpu.shader_cores3.inst          576                       # Number of bytes read from this memory
system.ruby.phys_mem.bytes_read::switch_cpus0.inst    531340432                       # Number of bytes read from this memory
system.ruby.phys_mem.bytes_read::switch_cpus0.data     56200086                       # Number of bytes read from this memory
system.ruby.phys_mem.bytes_read::total      676983090                       # Number of bytes read from this memory
system.ruby.phys_mem.bytes_inst_read::gpu.shader_cores0.inst          576                       # Number of instructions bytes read from this memory
system.ruby.phys_mem.bytes_inst_read::gpu.shader_cores1.inst          576                       # Number of instructions bytes read from this memory
system.ruby.phys_mem.bytes_inst_read::gpu.shader_cores2.inst          576                       # Number of instructions bytes read from this memory
system.ruby.phys_mem.bytes_inst_read::gpu.shader_cores3.inst          576                       # Number of instructions bytes read from this memory
system.ruby.phys_mem.bytes_inst_read::switch_cpus0.inst    531340432                       # Number of instructions bytes read from this memory
system.ruby.phys_mem.bytes_inst_read::total    531342736                       # Number of instructions bytes read from this memory
system.ruby.phys_mem.bytes_written::gpu.ce     50380812                       # Number of bytes written to this memory
system.ruby.phys_mem.bytes_written::gpu.shader_cores0.data      4186112                       # Number of bytes written to this memory
system.ruby.phys_mem.bytes_written::gpu.shader_cores1.data      4187136                       # Number of bytes written to this memory
system.ruby.phys_mem.bytes_written::gpu.shader_cores2.data      4197376                       # Number of bytes written to this memory
system.ruby.phys_mem.bytes_written::gpu.shader_cores3.data      4206592                       # Number of bytes written to this memory
system.ruby.phys_mem.bytes_written::switch_cpus0.data     37552369                       # Number of bytes written to this memory
system.ruby.phys_mem.bytes_written::total    104710397                       # Number of bytes written to this memory
system.ruby.phys_mem.num_reads::gpu.ce         393603                       # Number of read requests responded to by this memory
system.ruby.phys_mem.num_reads::gpu.shader_cores0.data       171556                       # Number of read requests responded to by this memory
system.ruby.phys_mem.num_reads::gpu.shader_cores0.inst           36                       # Number of read requests responded to by this memory
system.ruby.phys_mem.num_reads::gpu.shader_cores1.data       171787                       # Number of read requests responded to by this memory
system.ruby.phys_mem.num_reads::gpu.shader_cores1.inst           36                       # Number of read requests responded to by this memory
system.ruby.phys_mem.num_reads::gpu.shader_cores2.data       172193                       # Number of read requests responded to by this memory
system.ruby.phys_mem.num_reads::gpu.shader_cores2.inst           36                       # Number of read requests responded to by this memory
system.ruby.phys_mem.num_reads::gpu.shader_cores3.data       172592                       # Number of read requests responded to by this memory
system.ruby.phys_mem.num_reads::gpu.shader_cores3.inst           36                       # Number of read requests responded to by this memory
system.ruby.phys_mem.num_reads::switch_cpus0.inst     66417554                       # Number of read requests responded to by this memory
system.ruby.phys_mem.num_reads::switch_cpus0.data     13587023                       # Number of read requests responded to by this memory
system.ruby.phys_mem.num_reads::total        81086452                       # Number of read requests responded to by this memory
system.ruby.phys_mem.num_writes::gpu.ce        393603                       # Number of write requests responded to by this memory
system.ruby.phys_mem.num_writes::gpu.shader_cores0.data        95938                       # Number of write requests responded to by this memory
system.ruby.phys_mem.num_writes::gpu.shader_cores1.data        96137                       # Number of write requests responded to by this memory
system.ruby.phys_mem.num_writes::gpu.shader_cores2.data        96359                       # Number of write requests responded to by this memory
system.ruby.phys_mem.num_writes::gpu.shader_cores3.data        96590                       # Number of write requests responded to by this memory
system.ruby.phys_mem.num_writes::switch_cpus0.data      6946312                       # Number of write requests responded to by this memory
system.ruby.phys_mem.num_writes::total        7724939                       # Number of write requests responded to by this memory
system.ruby.phys_mem.bw_read::gpu.ce        345364423                       # Total read bandwidth from this memory (bytes/s)
system.ruby.phys_mem.bw_read::gpu.shader_cores0.data     66841074                       # Total read bandwidth from this memory (bytes/s)
system.ruby.phys_mem.bw_read::gpu.shader_cores0.inst         3949                       # Total read bandwidth from this memory (bytes/s)
system.ruby.phys_mem.bw_read::gpu.shader_cores1.data     66812996                       # Total read bandwidth from this memory (bytes/s)
system.ruby.phys_mem.bw_read::gpu.shader_cores1.inst         3949                       # Total read bandwidth from this memory (bytes/s)
system.ruby.phys_mem.bw_read::gpu.shader_cores2.data     66979711                       # Total read bandwidth from this memory (bytes/s)
system.ruby.phys_mem.bw_read::gpu.shader_cores2.inst         3949                       # Total read bandwidth from this memory (bytes/s)
system.ruby.phys_mem.bw_read::gpu.shader_cores3.data     67121858                       # Total read bandwidth from this memory (bytes/s)
system.ruby.phys_mem.bw_read::gpu.shader_cores3.inst         3949                       # Total read bandwidth from this memory (bytes/s)
system.ruby.phys_mem.bw_read::switch_cpus0.inst   3642380396                       # Total read bandwidth from this memory (bytes/s)
system.ruby.phys_mem.bw_read::switch_cpus0.data    385256004                       # Total read bandwidth from this memory (bytes/s)
system.ruby.phys_mem.bw_read::total        4640772256                       # Total read bandwidth from this memory (bytes/s)
system.ruby.phys_mem.bw_inst_read::gpu.shader_cores0.inst         3949                       # Instruction read bandwidth from this memory (bytes/s)
system.ruby.phys_mem.bw_inst_read::gpu.shader_cores1.inst         3949                       # Instruction read bandwidth from this memory (bytes/s)
system.ruby.phys_mem.bw_inst_read::gpu.shader_cores2.inst         3949                       # Instruction read bandwidth from this memory (bytes/s)
system.ruby.phys_mem.bw_inst_read::gpu.shader_cores3.inst         3949                       # Instruction read bandwidth from this memory (bytes/s)
system.ruby.phys_mem.bw_inst_read::switch_cpus0.inst   3642380396                       # Instruction read bandwidth from this memory (bytes/s)
system.ruby.phys_mem.bw_inst_read::total   3642396190                       # Instruction read bandwidth from this memory (bytes/s)
system.ruby.phys_mem.bw_write::gpu.ce       345364423                       # Write bandwidth from this memory (bytes/s)
system.ruby.phys_mem.bw_write::gpu.shader_cores0.data     28696127                       # Write bandwidth from this memory (bytes/s)
system.ruby.phys_mem.bw_write::gpu.shader_cores1.data     28703146                       # Write bandwidth from this memory (bytes/s)
system.ruby.phys_mem.bw_write::gpu.shader_cores2.data     28773342                       # Write bandwidth from this memory (bytes/s)
system.ruby.phys_mem.bw_write::gpu.shader_cores3.data     28836519                       # Write bandwidth from this memory (bytes/s)
system.ruby.phys_mem.bw_write::switch_cpus0.data    257424439                       # Write bandwidth from this memory (bytes/s)
system.ruby.phys_mem.bw_write::total        717797996                       # Write bandwidth from this memory (bytes/s)
system.ruby.phys_mem.bw_total::gpu.ce       690728847                       # Total bandwidth to/from this memory (bytes/s)
system.ruby.phys_mem.bw_total::gpu.shader_cores0.data     95537201                       # Total bandwidth to/from this memory (bytes/s)
system.ruby.phys_mem.bw_total::gpu.shader_cores0.inst         3949                       # Total bandwidth to/from this memory (bytes/s)
system.ruby.phys_mem.bw_total::gpu.shader_cores1.data     95516142                       # Total bandwidth to/from this memory (bytes/s)
system.ruby.phys_mem.bw_total::gpu.shader_cores1.inst         3949                       # Total bandwidth to/from this memory (bytes/s)
system.ruby.phys_mem.bw_total::gpu.shader_cores2.data     95753053                       # Total bandwidth to/from this memory (bytes/s)
system.ruby.phys_mem.bw_total::gpu.shader_cores2.inst         3949                       # Total bandwidth to/from this memory (bytes/s)
system.ruby.phys_mem.bw_total::gpu.shader_cores3.data     95958377                       # Total bandwidth to/from this memory (bytes/s)
system.ruby.phys_mem.bw_total::gpu.shader_cores3.inst         3949                       # Total bandwidth to/from this memory (bytes/s)
system.ruby.phys_mem.bw_total::switch_cpus0.inst   3642380396                       # Total bandwidth to/from this memory (bytes/s)
system.ruby.phys_mem.bw_total::switch_cpus0.data    642680443                       # Total bandwidth to/from this memory (bytes/s)
system.ruby.phys_mem.bw_total::total       5358570252                       # Total bandwidth to/from this memory (bytes/s)
system.cpu_voltage_domain.voltage                   1                       # Voltage in Volts
system.cpu_clk_domain.clock                       500                       # Clock period in ticks
system.cpu0.apic_clk_domain.clock                8000                       # Clock period in ticks
system.cpu0.workload.num_syscalls                  30                       # Number of system calls
system.cpu0.numCycles                               0                       # number of cpu cycles simulated
system.cpu0.numWorkItemsStarted                     0                       # number of work items this cpu started
system.cpu0.numWorkItemsCompleted                   0                       # number of work items this cpu completed
system.cpu0.committedInsts                          0                       # Number of instructions committed
system.cpu0.committedOps                            0                       # Number of ops (including micro ops) committed
system.cpu0.num_int_alu_accesses                    0                       # Number of integer alu accesses
system.cpu0.num_fp_alu_accesses                     0                       # Number of float alu accesses
system.cpu0.num_func_calls                          0                       # number of times a function call or return occured
system.cpu0.num_conditional_control_insts            0                       # number of instructions that are conditional controls
system.cpu0.num_int_insts                           0                       # number of integer instructions
system.cpu0.num_fp_insts                            0                       # number of float instructions
system.cpu0.num_int_register_reads                  0                       # number of times the integer registers were read
system.cpu0.num_int_register_writes                 0                       # number of times the integer registers were written
system.cpu0.num_fp_register_reads                   0                       # number of times the floating registers were read
system.cpu0.num_fp_register_writes                  0                       # number of times the floating registers were written
system.cpu0.num_mem_refs                            0                       # number of memory refs
system.cpu0.num_load_insts                          0                       # Number of load instructions
system.cpu0.num_store_insts                         0                       # Number of store instructions
system.cpu0.num_idle_cycles                         0                       # Number of idle cycles
system.cpu0.num_busy_cycles                         0                       # Number of busy cycles
system.cpu0.not_idle_fraction                       1                       # Percentage of non-idle cycles
system.cpu0.idle_fraction                           0                       # Percentage of idle cycles
system.cpu0.op_class::No_OpClass                    0                       # Class of executed instruction
system.cpu0.op_class::IntAlu                        0                       # Class of executed instruction
system.cpu0.op_class::IntMult                       0                       # Class of executed instruction
system.cpu0.op_class::IntDiv                        0                       # Class of executed instruction
system.cpu0.op_class::FloatAdd                      0                       # Class of executed instruction
system.cpu0.op_class::FloatCmp                      0                       # Class of executed instruction
system.cpu0.op_class::FloatCvt                      0                       # Class of executed instruction
system.cpu0.op_class::FloatMult                     0                       # Class of executed instruction
system.cpu0.op_class::FloatDiv                      0                       # Class of executed instruction
system.cpu0.op_class::FloatSqrt                     0                       # Class of executed instruction
system.cpu0.op_class::SimdAdd                       0                       # Class of executed instruction
system.cpu0.op_class::SimdAddAcc                    0                       # Class of executed instruction
system.cpu0.op_class::SimdAlu                       0                       # Class of executed instruction
system.cpu0.op_class::SimdCmp                       0                       # Class of executed instruction
system.cpu0.op_class::SimdCvt                       0                       # Class of executed instruction
system.cpu0.op_class::SimdMisc                      0                       # Class of executed instruction
system.cpu0.op_class::SimdMult                      0                       # Class of executed instruction
system.cpu0.op_class::SimdMultAcc                   0                       # Class of executed instruction
system.cpu0.op_class::SimdShift                     0                       # Class of executed instruction
system.cpu0.op_class::SimdShiftAcc                  0                       # Class of executed instruction
system.cpu0.op_class::SimdSqrt                      0                       # Class of executed instruction
system.cpu0.op_class::SimdFloatAdd                  0                       # Class of executed instruction
system.cpu0.op_class::SimdFloatAlu                  0                       # Class of executed instruction
system.cpu0.op_class::SimdFloatCmp                  0                       # Class of executed instruction
system.cpu0.op_class::SimdFloatCvt                  0                       # Class of executed instruction
system.cpu0.op_class::SimdFloatDiv                  0                       # Class of executed instruction
system.cpu0.op_class::SimdFloatMisc                 0                       # Class of executed instruction
system.cpu0.op_class::SimdFloatMult                 0                       # Class of executed instruction
system.cpu0.op_class::SimdFloatMultAcc              0                       # Class of executed instruction
system.cpu0.op_class::SimdFloatSqrt                 0                       # Class of executed instruction
system.cpu0.op_class::MemRead                       0                       # Class of executed instruction
system.cpu0.op_class::MemWrite                      0                       # Class of executed instruction
system.cpu0.op_class::IprAccess                     0                       # Class of executed instruction
system.cpu0.op_class::InstPrefetch                  0                       # Class of executed instruction
system.cpu0.op_class::total                         0                       # Class of executed instruction
system.cpu1.apic_clk_domain.clock                8000                       # Clock period in ticks
system.cpu1.numCycles                               0                       # number of cpu cycles simulated
system.cpu1.numWorkItemsStarted                     0                       # number of work items this cpu started
system.cpu1.numWorkItemsCompleted                   0                       # number of work items this cpu completed
system.cpu1.committedInsts                          0                       # Number of instructions committed
system.cpu1.committedOps                            0                       # Number of ops (including micro ops) committed
system.cpu1.num_int_alu_accesses                    0                       # Number of integer alu accesses
system.cpu1.num_fp_alu_accesses                     0                       # Number of float alu accesses
system.cpu1.num_func_calls                          0                       # number of times a function call or return occured
system.cpu1.num_conditional_control_insts            0                       # number of instructions that are conditional controls
system.cpu1.num_int_insts                           0                       # number of integer instructions
system.cpu1.num_fp_insts                            0                       # number of float instructions
system.cpu1.num_int_register_reads                  0                       # number of times the integer registers were read
system.cpu1.num_int_register_writes                 0                       # number of times the integer registers were written
system.cpu1.num_fp_register_reads                   0                       # number of times the floating registers were read
system.cpu1.num_fp_register_writes                  0                       # number of times the floating registers were written
system.cpu1.num_mem_refs                            0                       # number of memory refs
system.cpu1.num_load_insts                          0                       # Number of load instructions
system.cpu1.num_store_insts                         0                       # Number of store instructions
system.cpu1.num_idle_cycles                         0                       # Number of idle cycles
system.cpu1.num_busy_cycles                         0                       # Number of busy cycles
system.cpu1.not_idle_fraction                       0                       # Percentage of non-idle cycles
system.cpu1.idle_fraction                           1                       # Percentage of idle cycles
system.cpu1.op_class::No_OpClass                    0                       # Class of executed instruction
system.cpu1.op_class::IntAlu                        0                       # Class of executed instruction
system.cpu1.op_class::IntMult                       0                       # Class of executed instruction
system.cpu1.op_class::IntDiv                        0                       # Class of executed instruction
system.cpu1.op_class::FloatAdd                      0                       # Class of executed instruction
system.cpu1.op_class::FloatCmp                      0                       # Class of executed instruction
system.cpu1.op_class::FloatCvt                      0                       # Class of executed instruction
system.cpu1.op_class::FloatMult                     0                       # Class of executed instruction
system.cpu1.op_class::FloatDiv                      0                       # Class of executed instruction
system.cpu1.op_class::FloatSqrt                     0                       # Class of executed instruction
system.cpu1.op_class::SimdAdd                       0                       # Class of executed instruction
system.cpu1.op_class::SimdAddAcc                    0                       # Class of executed instruction
system.cpu1.op_class::SimdAlu                       0                       # Class of executed instruction
system.cpu1.op_class::SimdCmp                       0                       # Class of executed instruction
system.cpu1.op_class::SimdCvt                       0                       # Class of executed instruction
system.cpu1.op_class::SimdMisc                      0                       # Class of executed instruction
system.cpu1.op_class::SimdMult                      0                       # Class of executed instruction
system.cpu1.op_class::SimdMultAcc                   0                       # Class of executed instruction
system.cpu1.op_class::SimdShift                     0                       # Class of executed instruction
system.cpu1.op_class::SimdShiftAcc                  0                       # Class of executed instruction
system.cpu1.op_class::SimdSqrt                      0                       # Class of executed instruction
system.cpu1.op_class::SimdFloatAdd                  0                       # Class of executed instruction
system.cpu1.op_class::SimdFloatAlu                  0                       # Class of executed instruction
system.cpu1.op_class::SimdFloatCmp                  0                       # Class of executed instruction
system.cpu1.op_class::SimdFloatCvt                  0                       # Class of executed instruction
system.cpu1.op_class::SimdFloatDiv                  0                       # Class of executed instruction
system.cpu1.op_class::SimdFloatMisc                 0                       # Class of executed instruction
system.cpu1.op_class::SimdFloatMult                 0                       # Class of executed instruction
system.cpu1.op_class::SimdFloatMultAcc              0                       # Class of executed instruction
system.cpu1.op_class::SimdFloatSqrt                 0                       # Class of executed instruction
system.cpu1.op_class::MemRead                       0                       # Class of executed instruction
system.cpu1.op_class::MemWrite                      0                       # Class of executed instruction
system.cpu1.op_class::IprAccess                     0                       # Class of executed instruction
system.cpu1.op_class::InstPrefetch                  0                       # Class of executed instruction
system.cpu1.op_class::total                         0                       # Class of executed instruction
system.gpu.clk_domain.voltage_domain.voltage            1                       # Voltage in Volts
system.gpu.clk_domain.clock                      1429                       # Clock period in ticks
system.gpu.dram_wrapper.clk_domain.clock          541                       # Clock period in ticks
system.gpu.icnt_wrapper.clk_domain.clock         2858                       # Clock period in ticks
system.ruby.delayHist::bucket_size                128                       # delay histogram for all message
system.ruby.delayHist::max_bucket                1279                       # delay histogram for all message
system.ruby.delayHist::samples               15349824                       # delay histogram for all message
system.ruby.delayHist::mean                  6.715304                       # delay histogram for all message
system.ruby.delayHist::stdev                23.731308                       # delay histogram for all message
system.ruby.delayHist                    |    15217796     99.14%     99.14% |      106981      0.70%     99.84% |       21386      0.14%     99.98% |        3187      0.02%    100.00% |         381      0.00%    100.00% |          74      0.00%    100.00% |          11      0.00%    100.00% |           8      0.00%    100.00% |           0      0.00%    100.00% |           0      0.00%    100.00% # delay histogram for all message
system.ruby.delayHist::total                 15349824                       # delay histogram for all message
system.ruby.outstanding_req_hist::bucket_size           16                      
system.ruby.outstanding_req_hist::max_bucket          159                      
system.ruby.outstanding_req_hist::samples     88811391                      
system.ruby.outstanding_req_hist::mean       1.946663                      
system.ruby.outstanding_req_hist::gmean      1.076650                      
system.ruby.outstanding_req_hist::stdev      7.519945                      
system.ruby.outstanding_req_hist         |    87354590     98.36%     98.36% |      253374      0.29%     98.64% |      137697      0.16%     98.80% |       91001      0.10%     98.90% |      853792      0.96%     99.86% |       32531      0.04%     99.90% |       88406      0.10%    100.00% |           0      0.00%    100.00% |           0      0.00%    100.00% |           0      0.00%    100.00%
system.ruby.outstanding_req_hist::total      88811391                      
system.ruby.latency_hist::bucket_size            4096                      
system.ruby.latency_hist::max_bucket            40959                      
system.ruby.latency_hist::samples            88811391                      
system.ruby.latency_hist::mean              75.102190                      
system.ruby.latency_hist::gmean              1.191058                      
system.ruby.latency_hist::stdev            811.556627                      
system.ruby.latency_hist                 |    88243762     99.36%     99.36% |      390011      0.44%     99.80% |       57719      0.06%     99.86% |       51249      0.06%     99.92% |       43096      0.05%     99.97% |       22163      0.02%    100.00% |        3279      0.00%    100.00% |         106      0.00%    100.00% |           6      0.00%    100.00% |           0      0.00%    100.00%
system.ruby.latency_hist::total              88811391                      
system.ruby.hit_latency_hist::bucket_size            1                      
system.ruby.hit_latency_hist::max_bucket            9                      
system.ruby.hit_latency_hist::samples        86637038                      
system.ruby.hit_latency_hist::mean           1.000002                      
system.ruby.hit_latency_hist::gmean          1.000001                      
system.ruby.hit_latency_hist::stdev          0.002259                      
system.ruby.hit_latency_hist             |           0      0.00%      0.00% |    86636963    100.00%    100.00% |          29      0.00%    100.00% |          24      0.00%    100.00% |          12      0.00%    100.00% |           7      0.00%    100.00% |           1      0.00%    100.00% |           2      0.00%    100.00% |           0      0.00%    100.00% |           0      0.00%    100.00%
system.ruby.hit_latency_hist::total          86637038                      
system.ruby.miss_latency_hist::bucket_size         4096                      
system.ruby.miss_latency_hist::max_bucket        40959                      
system.ruby.miss_latency_hist::samples        2174353                      
system.ruby.miss_latency_hist::mean       3027.701932                      
system.ruby.miss_latency_hist::gmean      1263.173320                      
system.ruby.miss_latency_hist::stdev      4238.496788                      
system.ruby.miss_latency_hist            |     1606724     73.89%     73.89% |      390011     17.94%     91.83% |       57719      2.65%     94.49% |       51249      2.36%     96.84% |       43096      1.98%     98.82% |       22163      1.02%     99.84% |        3279      0.15%     99.99% |         106      0.00%    100.00% |           6      0.00%    100.00% |           0      0.00%    100.00%
system.ruby.miss_latency_hist::total          2174353                      
system.gpu.shader_mmu.numPagefaults                 0                       # Number of Pagefaults
system.gpu.shader_mmu.numPagewalks             173948                       # Number of Pagewalks
system.gpu.shader_mmu.totalRequests            173948                       # Total number of requests
system.gpu.shader_mmu.l2hits                        0                       # Hits in the shared L2
system.gpu.shader_mmu.prefetchHits                  0                       # Number of prefetch hits
system.gpu.shader_mmu.numPrefetches                 0                       # Number of prefetchs
system.gpu.shader_mmu.prefetchFaults                0                       # Number of faults caused by prefetches
system.gpu.shader_mmu.pagefaultLatency::samples            0                       # Latency to complete the pagefault
system.gpu.shader_mmu.pagefaultLatency::mean          nan                       # Latency to complete the pagefault
system.gpu.shader_mmu.pagefaultLatency::gmean          nan                       # Latency to complete the pagefault
system.gpu.shader_mmu.pagefaultLatency::stdev          nan                       # Latency to complete the pagefault
system.gpu.shader_mmu.pagefaultLatency::0            0                       # Latency to complete the pagefault
system.gpu.shader_mmu.pagefaultLatency::1            0                       # Latency to complete the pagefault
system.gpu.shader_mmu.pagefaultLatency::2            0                       # Latency to complete the pagefault
system.gpu.shader_mmu.pagefaultLatency::3            0                       # Latency to complete the pagefault
system.gpu.shader_mmu.pagefaultLatency::4            0                       # Latency to complete the pagefault
system.gpu.shader_mmu.pagefaultLatency::5            0                       # Latency to complete the pagefault
system.gpu.shader_mmu.pagefaultLatency::6            0                       # Latency to complete the pagefault
system.gpu.shader_mmu.pagefaultLatency::7            0                       # Latency to complete the pagefault
system.gpu.shader_mmu.pagefaultLatency::8            0                       # Latency to complete the pagefault
system.gpu.shader_mmu.pagefaultLatency::9            0                       # Latency to complete the pagefault
system.gpu.shader_mmu.pagefaultLatency::10            0                       # Latency to complete the pagefault
system.gpu.shader_mmu.pagefaultLatency::11            0                       # Latency to complete the pagefault
system.gpu.shader_mmu.pagefaultLatency::12            0                       # Latency to complete the pagefault
system.gpu.shader_mmu.pagefaultLatency::13            0                       # Latency to complete the pagefault
system.gpu.shader_mmu.pagefaultLatency::14            0                       # Latency to complete the pagefault
system.gpu.shader_mmu.pagefaultLatency::15            0                       # Latency to complete the pagefault
system.gpu.shader_mmu.pagefaultLatency::16            0                       # Latency to complete the pagefault
system.gpu.shader_mmu.pagefaultLatency::17            0                       # Latency to complete the pagefault
system.gpu.shader_mmu.pagefaultLatency::18            0                       # Latency to complete the pagefault
system.gpu.shader_mmu.pagefaultLatency::19            0                       # Latency to complete the pagefault
system.gpu.shader_mmu.pagefaultLatency::20            0                       # Latency to complete the pagefault
system.gpu.shader_mmu.pagefaultLatency::21            0                       # Latency to complete the pagefault
system.gpu.shader_mmu.pagefaultLatency::22            0                       # Latency to complete the pagefault
system.gpu.shader_mmu.pagefaultLatency::23            0                       # Latency to complete the pagefault
system.gpu.shader_mmu.pagefaultLatency::24            0                       # Latency to complete the pagefault
system.gpu.shader_mmu.pagefaultLatency::25            0                       # Latency to complete the pagefault
system.gpu.shader_mmu.pagefaultLatency::26            0                       # Latency to complete the pagefault
system.gpu.shader_mmu.pagefaultLatency::27            0                       # Latency to complete the pagefault
system.gpu.shader_mmu.pagefaultLatency::28            0                       # Latency to complete the pagefault
system.gpu.shader_mmu.pagefaultLatency::29            0                       # Latency to complete the pagefault
system.gpu.shader_mmu.pagefaultLatency::30            0                       # Latency to complete the pagefault
system.gpu.shader_mmu.pagefaultLatency::31            0                       # Latency to complete the pagefault
system.gpu.shader_mmu.pagefaultLatency::total            0                       # Latency to complete the pagefault
system.gpu.shader_mmu.concurrentWalks::samples       173948                       # Number of outstanding walks
system.gpu.shader_mmu.concurrentWalks::mean            0                       # Number of outstanding walks
system.gpu.shader_mmu.concurrentWalks::gmean            0                       # Number of outstanding walks
system.gpu.shader_mmu.concurrentWalks::stdev            0                       # Number of outstanding walks
system.gpu.shader_mmu.concurrentWalks::0       173948    100.00%    100.00% # Number of outstanding walks
system.gpu.shader_mmu.concurrentWalks::1            0      0.00%    100.00% # Number of outstanding walks
system.gpu.shader_mmu.concurrentWalks::2            0      0.00%    100.00% # Number of outstanding walks
system.gpu.shader_mmu.concurrentWalks::3            0      0.00%    100.00% # Number of outstanding walks
system.gpu.shader_mmu.concurrentWalks::4            0      0.00%    100.00% # Number of outstanding walks
system.gpu.shader_mmu.concurrentWalks::5            0      0.00%    100.00% # Number of outstanding walks
system.gpu.shader_mmu.concurrentWalks::6            0      0.00%    100.00% # Number of outstanding walks
system.gpu.shader_mmu.concurrentWalks::7            0      0.00%    100.00% # Number of outstanding walks
system.gpu.shader_mmu.concurrentWalks::8            0      0.00%    100.00% # Number of outstanding walks
system.gpu.shader_mmu.concurrentWalks::9            0      0.00%    100.00% # Number of outstanding walks
system.gpu.shader_mmu.concurrentWalks::10            0      0.00%    100.00% # Number of outstanding walks
system.gpu.shader_mmu.concurrentWalks::11            0      0.00%    100.00% # Number of outstanding walks
system.gpu.shader_mmu.concurrentWalks::12            0      0.00%    100.00% # Number of outstanding walks
system.gpu.shader_mmu.concurrentWalks::13            0      0.00%    100.00% # Number of outstanding walks
system.gpu.shader_mmu.concurrentWalks::14            0      0.00%    100.00% # Number of outstanding walks
system.gpu.shader_mmu.concurrentWalks::15            0      0.00%    100.00% # Number of outstanding walks
system.gpu.shader_mmu.concurrentWalks::total       173948                       # Number of outstanding walks
system.gpu.shader_mmu.pagewalkLatency::samples       173948                       # Latency to complete the pagewalk
system.gpu.shader_mmu.pagewalkLatency::mean            0                       # Latency to complete the pagewalk
system.gpu.shader_mmu.pagewalkLatency::gmean            0                       # Latency to complete the pagewalk
system.gpu.shader_mmu.pagewalkLatency::stdev            0                       # Latency to complete the pagewalk
system.gpu.shader_mmu.pagewalkLatency::0       173948    100.00%    100.00% # Latency to complete the pagewalk
system.gpu.shader_mmu.pagewalkLatency::1            0      0.00%    100.00% # Latency to complete the pagewalk
system.gpu.shader_mmu.pagewalkLatency::2            0      0.00%    100.00% # Latency to complete the pagewalk
system.gpu.shader_mmu.pagewalkLatency::3            0      0.00%    100.00% # Latency to complete the pagewalk
system.gpu.shader_mmu.pagewalkLatency::4            0      0.00%    100.00% # Latency to complete the pagewalk
system.gpu.shader_mmu.pagewalkLatency::5            0      0.00%    100.00% # Latency to complete the pagewalk
system.gpu.shader_mmu.pagewalkLatency::6            0      0.00%    100.00% # Latency to complete the pagewalk
system.gpu.shader_mmu.pagewalkLatency::7            0      0.00%    100.00% # Latency to complete the pagewalk
system.gpu.shader_mmu.pagewalkLatency::8            0      0.00%    100.00% # Latency to complete the pagewalk
system.gpu.shader_mmu.pagewalkLatency::9            0      0.00%    100.00% # Latency to complete the pagewalk
system.gpu.shader_mmu.pagewalkLatency::10            0      0.00%    100.00% # Latency to complete the pagewalk
system.gpu.shader_mmu.pagewalkLatency::11            0      0.00%    100.00% # Latency to complete the pagewalk
system.gpu.shader_mmu.pagewalkLatency::12            0      0.00%    100.00% # Latency to complete the pagewalk
system.gpu.shader_mmu.pagewalkLatency::13            0      0.00%    100.00% # Latency to complete the pagewalk
system.gpu.shader_mmu.pagewalkLatency::14            0      0.00%    100.00% # Latency to complete the pagewalk
system.gpu.shader_mmu.pagewalkLatency::15            0      0.00%    100.00% # Latency to complete the pagewalk
system.gpu.shader_mmu.pagewalkLatency::16            0      0.00%    100.00% # Latency to complete the pagewalk
system.gpu.shader_mmu.pagewalkLatency::17            0      0.00%    100.00% # Latency to complete the pagewalk
system.gpu.shader_mmu.pagewalkLatency::18            0      0.00%    100.00% # Latency to complete the pagewalk
system.gpu.shader_mmu.pagewalkLatency::19            0      0.00%    100.00% # Latency to complete the pagewalk
system.gpu.shader_mmu.pagewalkLatency::20            0      0.00%    100.00% # Latency to complete the pagewalk
system.gpu.shader_mmu.pagewalkLatency::21            0      0.00%    100.00% # Latency to complete the pagewalk
system.gpu.shader_mmu.pagewalkLatency::22            0      0.00%    100.00% # Latency to complete the pagewalk
system.gpu.shader_mmu.pagewalkLatency::23            0      0.00%    100.00% # Latency to complete the pagewalk
system.gpu.shader_mmu.pagewalkLatency::24            0      0.00%    100.00% # Latency to complete the pagewalk
system.gpu.shader_mmu.pagewalkLatency::25            0      0.00%    100.00% # Latency to complete the pagewalk
system.gpu.shader_mmu.pagewalkLatency::26            0      0.00%    100.00% # Latency to complete the pagewalk
system.gpu.shader_mmu.pagewalkLatency::27            0      0.00%    100.00% # Latency to complete the pagewalk
system.gpu.shader_mmu.pagewalkLatency::28            0      0.00%    100.00% # Latency to complete the pagewalk
system.gpu.shader_mmu.pagewalkLatency::29            0      0.00%    100.00% # Latency to complete the pagewalk
system.gpu.shader_mmu.pagewalkLatency::30            0      0.00%    100.00% # Latency to complete the pagewalk
system.gpu.shader_mmu.pagewalkLatency::31            0      0.00%    100.00% # Latency to complete the pagewalk
system.gpu.shader_mmu.pagewalkLatency::total       173948                       # Latency to complete the pagewalk
system.gpu.kernels_started                        255                       # Number of kernels started
system.gpu.kernels_completed                      255                       # Number of kernels completed
system.gpu.ce.device_dtb.hits                       0                       # Number of hits in this TLB
system.gpu.ce.device_dtb.misses                     0                       # Number of misses in this TLB
system.gpu.ce.device_dtb.hitRate                  nan                       # Hit rate for this TLB
system.gpu.ce.host_dtb.hits                    219655                       # Number of hits in this TLB
system.gpu.ce.host_dtb.misses                  173948                       # Number of misses in this TLB
system.gpu.ce.host_dtb.hitRate               0.558062                       # Hit rate for this TLB
system.gpu.ce.numOperations                         3                       # Number of copy/memset operations
system.gpu.ce.opBytesRead                    50380812                       # Number of copy bytes read
system.gpu.ce.opBytesWritten                 50380812                       # Number of copy/memset bytes written
system.gpu.ce.opTimeTicks                 15688851347                       # Total time spent in copy/memset operations
system.gpu.shader_cores0.itb.hits                   0                       # Number of hits in this TLB
system.gpu.shader_cores0.itb.misses                 0                       # Number of misses in this TLB
system.gpu.shader_cores0.itb.hitRate              nan                       # Hit rate for this TLB
system.gpu.shader_cores0.local_loads                0                       # Number of loads from local space
system.gpu.shader_cores0.local_stores               0                       # Number of stores to local space
system.gpu.shader_cores0.shared_loads         5232640                       # Number of loads from shared space
system.gpu.shader_cores0.shared_stores        2227960                       # Number of stores to shared space
system.gpu.shader_cores0.param_kernel_loads      1340688                       # Number of loads from kernel parameter space
system.gpu.shader_cores0.param_local_loads            0                       # Number of loads from local parameter space
system.gpu.shader_cores0.param_local_stores            0                       # Number of stores to local parameter space
system.gpu.shader_cores0.const_loads                0                       # Number of loads from constant space
system.gpu.shader_cores0.tex_loads                  0                       # Number of loads from texture space
system.gpu.shader_cores0.global_loads         1181432                       # Number of loads from global space
system.gpu.shader_cores0.global_stores        1046528                       # Number of stores to global space
system.gpu.shader_cores0.surf_loads                 0                       # Number of loads from surface space
system.gpu.shader_cores0.generic_loads              0                       # Number of loads from generic spaces (global, shared, local)
system.gpu.shader_cores0.generic_stores             0                       # Number of stores to generic spaces (global, shared, local)
system.gpu.shader_cores0.inst_cache_requests           36                       # Number of instruction cache requests sent
system.gpu.shader_cores0.inst_cache_retries            0                       # Number of instruction cache retries
system.gpu.shader_cores0.inst_counts::0             0                       # Inst counts: 1: ALU, 2: MAD, 3: CTRL, 4: SFU, 5: MEM, 6: TEX, 7: NOP
system.gpu.shader_cores0.inst_counts::1      35495752                       # Inst counts: 1: ALU, 2: MAD, 3: CTRL, 4: SFU, 5: MEM, 6: TEX, 7: NOP
system.gpu.shader_cores0.inst_counts::2             0                       # Inst counts: 1: ALU, 2: MAD, 3: CTRL, 4: SFU, 5: MEM, 6: TEX, 7: NOP
system.gpu.shader_cores0.inst_counts::3       6275080                       # Inst counts: 1: ALU, 2: MAD, 3: CTRL, 4: SFU, 5: MEM, 6: TEX, 7: NOP
system.gpu.shader_cores0.inst_counts::4             0                       # Inst counts: 1: ALU, 2: MAD, 3: CTRL, 4: SFU, 5: MEM, 6: TEX, 7: NOP
system.gpu.shader_cores0.inst_counts::5      11029248                       # Inst counts: 1: ALU, 2: MAD, 3: CTRL, 4: SFU, 5: MEM, 6: TEX, 7: NOP
system.gpu.shader_cores0.inst_counts::6             0                       # Inst counts: 1: ALU, 2: MAD, 3: CTRL, 4: SFU, 5: MEM, 6: TEX, 7: NOP
system.gpu.shader_cores0.inst_counts::7             0                       # Inst counts: 1: ALU, 2: MAD, 3: CTRL, 4: SFU, 5: MEM, 6: TEX, 7: NOP
system.gpu.shader_cores0.activeCycles        12777757                       # Number of cycles this shader was executing a CTA
[...]
system.ruby.L1Cache_Controller.I.Store   |          35    100.00%    100.00% |           0      0.00%    100.00% |           0      0.00%    100.00% |           0      0.00%    100.00% |           0      0.00%    100.00% |           0      0.00%    100.00% |           0      0.00%    100.00% |           0      0.00%    100.00%
system.ruby.L1Cache_Controller.I.Store::total           35                      
system.ruby.L1Cache_Controller.I.L1_Replacement |         373      0.06%      0.06% |           0      0.00%      0.06% |      148051     25.03%     25.09% |      147797     24.98%     50.07% |      148272     25.06%     75.14% |      147074     24.86%    100.00% |           0      0.00%    100.00% |           9      0.00%    100.00%
system.ruby.L1Cache_Controller.I.L1_Replacement::total       591576                      
system.ruby.L1Cache_Controller.S.Load    |           0      0.00%      0.00% |           0      0.00%      0.00% |           1     33.33%     33.33% |           0      0.00%     33.33% |           1     33.33%     66.67% |           1     33.33%    100.00% |           0      0.00%    100.00% |           0      0.00%    100.00%
system.ruby.L1Cache_Controller.S.Load::total            3                      
system.ruby.L1Cache_Controller.S.Ifetch  |    66416342    100.00%    100.00% |           0      0.00%    100.00% |           0      0.00%    100.00% |           0      0.00%    100.00% |           0      0.00%    100.00% |           0      0.00%    100.00% |           0      0.00%    100.00% |           0      0.00%    100.00%
system.ruby.L1Cache_Controller.S.Ifetch::total     66416342                      
system.ruby.L1Cache_Controller.S.Inv     |         996     14.02%     14.02% |           0      0.00%     14.02% |        1499     21.11%     35.13% |        1533     21.59%     56.72% |        1508     21.23%     77.95% |        1566     22.05%    100.00% |           0      0.00%    100.00% |           0      0.00%    100.00%
system.ruby.L1Cache_Controller.S.Inv::total         7102                      
system.ruby.L1Cache_Controller.S.L1_Replacement |         153      8.50%      8.50% |           0      0.00%      8.50% |         335     18.61%     27.11% |         361     20.06%     47.17% |         362     20.11%     67.28% |         345     19.17%     86.44% |           0      0.00%     86.44% |         244     13.56%    100.00%
system.ruby.L1Cache_Controller.S.L1_Replacement::total         1800                      
system.ruby.L1Cache_Controller.E.Load    |    12652596     99.99%     99.99% |           0      0.00%     99.99% |         227      0.00%     99.99% |         256      0.00%    100.00% |         258      0.00%    100.00% |         247      0.00%    100.00% |           0      0.00%    100.00% |           0      0.00%    100.00%
system.ruby.L1Cache_Controller.E.Load::total     12653584                      
system.ruby.L1Cache_Controller.E.Store   |         162    100.00%    100.00% |           0      0.00%    100.00% |           0      0.00%    100.00% |           0      0.00%    100.00% |           0      0.00%    100.00% |           0      0.00%    100.00% |           0      0.00%    100.00% |           0      0.00%    100.00%
system.ruby.L1Cache_Controller.E.Store::total          162                      
system.ruby.L1Cache_Controller.E.Inv     |        3622      0.89%      0.89% |           0      0.00%      0.89% |      101152     24.79%     25.68% |      101238     24.81%     50.49% |      101471     24.87%     75.35% |      100575     24.65%    100.00% |           0      0.00%    100.00% |           0      0.00%    100.00%
system.ruby.L1Cache_Controller.E.Inv::total       408058                      
system.ruby.L1Cache_Controller.E.L1_Replacement |       41255      5.81%      5.81% |           0      0.00%      5.81% |       68341      9.63%     15.44% |       68420      9.64%     25.08% |       68635      9.67%     34.74% |       69886      9.84%     44.59% |           0      0.00%     44.59% |      393359     55.41%    100.00%
system.ruby.L1Cache_Controller.E.L1_Replacement::total       709896                      
system.ruby.L1Cache_Controller.E.Fwd_GETX |           0      0.00%      0.00% |           0      0.00%      0.00% |           2     28.57%     28.57% |           2     28.57%     57.14% |           0      0.00%     57.14% |           3     42.86%    100.00% |           0      0.00%    100.00% |           0      0.00%    100.00%
system.ruby.L1Cache_Controller.E.Fwd_GETX::total            7                      
system.ruby.L1Cache_Controller.E.Fwd_GETS |           0      0.00%      0.00% |           0      0.00%      0.00% |         412     25.08%     25.08% |         413     25.14%     50.21% |         414     25.20%     75.41% |         404     24.59%    100.00% |           0      0.00%    100.00% |           0      0.00%    100.00%
system.ruby.L1Cache_Controller.E.Fwd_GETS::total         1643                      
system.ruby.L1Cache_Controller.M.Load    |      813164    100.00%    100.00% |           0      0.00%    100.00% |           7      0.00%    100.00% |           4      0.00%    100.00% |           6      0.00%    100.00% |           8      0.00%    100.00% |           0      0.00%    100.00% |           0      0.00%    100.00%
system.ruby.L1Cache_Controller.M.Load::total       813189                      
system.ruby.L1Cache_Controller.M.Store   |     6753758    100.00%    100.00% |           0      0.00%    100.00% |           0      0.00%    100.00% |           0      0.00%    100.00% |           0      0.00%    100.00% |           0      0.00%    100.00% |           0      0.00%    100.00% |           0      0.00%    100.00%
system.ruby.L1Cache_Controller.M.Store::total      6753758                      
system.ruby.L1Cache_Controller.M.Inv     |         345      0.19%      0.19% |           0      0.00%      0.19% |       45948     25.08%     25.27% |       45575     24.88%     50.15% |       45854     25.03%     75.18% |       45463     24.82%     99.99% |           0      0.00%     99.99% |          14      0.01%    100.00%
system.ruby.L1Cache_Controller.M.Inv::total       183199                      
system.ruby.L1Cache_Controller.M.L1_Replacement |      268215     31.06%     31.06% |           0      0.00%     31.06% |       49931      5.78%     36.84% |       50486      5.85%     42.68% |       50424      5.84%     48.52% |       51028      5.91%     54.43% |           0      0.00%     54.43% |      393586     45.57%    100.00%
system.ruby.L1Cache_Controller.M.L1_Replacement::total       863670                      
system.ruby.L1Cache_Controller.M.Fwd_GETX |           0      0.00%      0.00% |           0      0.00%      0.00% |           0      0.00%      0.00% |           0      0.00%      0.00% |           0      0.00%      0.00% |           0      0.00%      0.00% |           0      0.00%      0.00% |           3    100.00%    100.00%
system.ruby.L1Cache_Controller.M.Fwd_GETX::total            3                      
system.ruby.L1Cache_Controller.M.Fwd_GETS |           0      0.00%      0.00% |           0      0.00%      0.00% |          59     18.73%     18.73% |          76     24.13%     42.86% |          81     25.71%     68.57% |          99     31.43%    100.00% |           0      0.00%    100.00% |           0      0.00%    100.00%
system.ruby.L1Cache_Controller.M.Fwd_GETS::total          315                      
system.ruby.L1Cache_Controller.IS.Inv    |           0      0.00%      0.00% |           0      0.00%      0.00% |          29     27.88%     27.88% |          26     25.00%     52.88% |          24     23.08%     75.96% |          25     24.04%    100.00% |           0      0.00%    100.00% |           0      0.00%    100.00%
system.ruby.L1Cache_Controller.IS.Inv::total          104                      
system.ruby.L1Cache_Controller.IS.L1_Replacement |           0      0.00%      0.00% |           0      0.00%      0.00% |      591291      7.86%      7.86% |      584207      7.77%     15.63% |      574928      7.65%     23.28% |      578846      7.70%     30.98% |           0      0.00%     30.98% |     5190404     69.02%    100.00%
system.ruby.L1Cache_Controller.IS.L1_Replacement::total      7519676                      
system.ruby.L1Cache_Controller.IS.Data_Exclusive |       45243      4.04%      4.04% |           0      0.00%      4.04% |      169965     15.17%     19.21% |      170124     15.19%     34.40% |      170563     15.23%     49.63% |      170929     15.26%     64.88% |           0      0.00%     64.88% |      393359     35.12%    100.00%
system.ruby.L1Cache_Controller.IS.Data_Exclusive::total      1120183                      
system.ruby.L1Cache_Controller.IS.DataS_fromL1 |           0      0.00%      0.00% |           0      0.00%      0.00% |         418     21.25%     21.25% |         441     22.42%     43.67% |         423     21.50%     65.18% |         441     22.42%     87.60% |           0      0.00%     87.60% |         244     12.40%    100.00%
system.ruby.L1Cache_Controller.IS.DataS_fromL1::total         1967                      
system.ruby.L1Cache_Controller.IS.Data_all_Acks |        1212     23.95%     23.95% |           0      0.00%     23.95% |         945     18.68%     42.63% |         972     19.21%     61.84% |         954     18.85%     80.69% |         977     19.31%    100.00% |           0      0.00%    100.00% |           0      0.00%    100.00%
system.ruby.L1Cache_Controller.IS.Data_all_Acks::total         5060                      
system.ruby.L1Cache_Controller.IM.L1_Replacement |           0      0.00%      0.00% |           0      0.00%      0.00% |      757393      8.85%      8.85% |      753510      8.80%     17.65% |      760699      8.89%     26.53% |      747655      8.73%     35.27% |           0      0.00%     35.27% |     5541818     64.73%    100.00%
system.ruby.L1Cache_Controller.IM.L1_Replacement::total      8561075                      
system.ruby.L1Cache_Controller.IM.Data   |           0      0.00%      0.00% |           0      0.00%      0.00% |           1      6.67%      6.67% |           0      0.00%      6.67% |           5     33.33%     40.00% |           9     60.00%    100.00% |           0      0.00%    100.00% |           0      0.00%    100.00%
system.ruby.L1Cache_Controller.IM.Data::total           15                      
system.ruby.L1Cache_Controller.IM.Data_all_Acks |      268412     25.64%     25.64% |           0      0.00%     25.64% |       95937      9.16%     34.80% |       96137      9.18%     43.98% |       96354      9.20%     53.18% |       96581      9.22%     62.41% |           0      0.00%     62.41% |      393603     37.59%    100.00%
system.ruby.L1Cache_Controller.IM.Data_all_Acks::total      1047024                      
system.ruby.L1Cache_Controller.SM.Ack    |           0      0.00%      0.00% |           0      0.00%      0.00% |           0      0.00%      0.00% |           0      0.00%      0.00% |           1     50.00%     50.00% |           1     50.00%    100.00% |           0      0.00%    100.00% |           0      0.00%    100.00%
system.ruby.L1Cache_Controller.SM.Ack::total            2                      
system.ruby.L1Cache_Controller.SM.Ack_all |           0      0.00%      0.00% |           0      0.00%      0.00% |           1      6.67%      6.67% |           0      0.00%      6.67% |           5     33.33%     40.00% |           9     60.00%    100.00% |           0      0.00%    100.00% |           0      0.00%    100.00%
system.ruby.L1Cache_Controller.SM.Ack_all::total           15                      
system.ruby.L1Cache_Controller.IS_I.Data_all_Acks |           0      0.00%      0.00% |           0      0.00%      0.00% |          29     27.88%     27.88% |          26     25.00%     52.88% |          24     23.08%     75.96% |          25     24.04%    100.00% |           0      0.00%    100.00% |           0      0.00%    100.00%
system.ruby.L1Cache_Controller.IS_I.Data_all_Acks::total          104                      
system.ruby.L1Cache_Controller.M_I.Ifetch |           1    100.00%    100.00% |           0      0.00%    100.00% |           0      0.00%    100.00% |           0      0.00%    100.00% |           0      0.00%    100.00% |           0      0.00%    100.00% |           0      0.00%    100.00% |           0      0.00%    100.00%
system.ruby.L1Cache_Controller.M_I.Ifetch::total            1                      
system.ruby.L1Cache_Controller.M_I.Inv   |           0      0.00%      0.00% |           0      0.00%      0.00% |       20992     25.14%     25.14% |       21044     25.20%     50.35% |       20737     24.84%     75.18% |       20721     24.82%    100.00% |           0      0.00%    100.00% |           0      0.00%    100.00%
system.ruby.L1Cache_Controller.M_I.Inv::total        83494                      
system.ruby.L1Cache_Controller.M_I.Fwd_GETS |           0      0.00%      0.00% |           0      0.00%      0.00% |           5     55.56%     55.56% |           3     33.33%     88.89% |           1     11.11%    100.00% |           0      0.00%    100.00% |           0      0.00%    100.00% |           0      0.00%    100.00%
system.ruby.L1Cache_Controller.M_I.Fwd_GETS::total            9                      
system.ruby.L1Cache_Controller.M_I.WB_Ack |      309470     20.77%     20.77% |           0      0.00%     20.77% |       97275      6.53%     27.30% |       97859      6.57%     33.86% |       98321      6.60%     40.46% |      100193      6.72%     47.19% |           0      0.00%     47.19% |      786945     52.81%    100.00%
system.ruby.L1Cache_Controller.M_I.WB_Ack::total      1490063                      
system.ruby.L1Cache_Controller.SINK_WB_ACK.WB_Ack |           0      0.00%      0.00% |           0      0.00%      0.00% |       20997     25.15%     25.15% |       21047     25.21%     50.35% |       20738     24.84%     75.19% |       20721     24.81%    100.00% |           0      0.00%    100.00% |           0      0.00%    100.00%
system.ruby.L1Cache_Controller.SINK_WB_ACK.WB_Ack::total        83503                      
system.ruby.L2Cache_Controller.L1_GET_INSTR         1356      0.00%      0.00%
system.ruby.L2Cache_Controller.L1_GETS        1126098      0.00%      0.00%
system.ruby.L2Cache_Controller.L1_GETX        1047039      0.00%      0.00%
system.ruby.L2Cache_Controller.L1_PUTX        1490079      0.00%      0.00%
system.ruby.L2Cache_Controller.L1_PUTX_old       113475      0.00%      0.00%
system.ruby.L2Cache_Controller.L2_Replacement       819115      0.00%      0.00%
system.ruby.L2Cache_Controller.L2_Replacement_clean      1690829      0.00%      0.00%
system.ruby.L2Cache_Controller.Mem_Data       2157699      0.00%      0.00%
system.ruby.L2Cache_Controller.Mem_Ack        2155734      0.00%      0.00%
system.ruby.L2Cache_Controller.WB_Data         226527      0.00%      0.00%
system.ruby.L2Cache_Controller.WB_Data_clean        42133      0.00%      0.00%
system.ruby.L2Cache_Controller.Ack               3956      0.00%      0.00%
system.ruby.L2Cache_Controller.Ack_all         413044      0.00%      0.00%
system.ruby.L2Cache_Controller.Unblock           1967      0.00%      0.00%
system.ruby.L2Cache_Controller.Exclusive_Unblock      2167222      0.00%      0.00%
system.ruby.L2Cache_Controller.NP.L1_GET_INSTR         1217      0.00%      0.00%
system.ruby.L2Cache_Controller.NP.L1_GETS      1111409      0.00%      0.00%
system.ruby.L2Cache_Controller.NP.L1_GETX      1045073      0.00%      0.00%
system.ruby.L2Cache_Controller.NP.L1_PUTX_old        57386      0.00%      0.00%
system.ruby.L2Cache_Controller.SS.L1_GET_INSTR          130      0.00%      0.00%
system.ruby.L2Cache_Controller.SS.L1_GETS           16      0.00%      0.00%
system.ruby.L2Cache_Controller.SS.L1_GETX           15      0.00%      0.00%
system.ruby.L2Cache_Controller.SS.L1_PUTX            9      0.00%      0.00%
system.ruby.L2Cache_Controller.SS.L2_Replacement          305      0.00%      0.00%
system.ruby.L2Cache_Controller.SS.L2_Replacement_clean         4681      0.00%      0.00%
system.ruby.L2Cache_Controller.M.L1_GET_INSTR            1      0.00%      0.00%
system.ruby.L2Cache_Controller.M.L1_GETS        10670      0.00%      0.00%
system.ruby.L2Cache_Controller.M.L1_GETX         1941      0.00%      0.00%
system.ruby.L2Cache_Controller.M.L2_Replacement       818648      0.00%      0.00%
system.ruby.L2Cache_Controller.M.L2_Replacement_clean       657349      0.00%      0.00%
system.ruby.L2Cache_Controller.MT.L1_GETS         1967      0.00%      0.00%
system.ruby.L2Cache_Controller.MT.L1_GETX           10      0.00%      0.00%
system.ruby.L2Cache_Controller.MT.L1_PUTX      1490063      0.00%      0.00%
system.ruby.L2Cache_Controller.MT.L2_Replacement          162      0.00%      0.00%
system.ruby.L2Cache_Controller.MT.L2_Replacement_clean       674589      0.00%      0.00%
system.ruby.L2Cache_Controller.M_I.L1_GETS           70      0.00%      0.00%
system.ruby.L2Cache_Controller.M_I.L1_PUTX_old        26103      0.00%      0.00%
system.ruby.L2Cache_Controller.M_I.Mem_Ack      2155734      0.00%      0.00%
system.ruby.L2Cache_Controller.MT_I.L1_PUTX_old            5      0.00%      0.00%
system.ruby.L2Cache_Controller.MT_I.WB_Data          143      0.00%      0.00%
system.ruby.L2Cache_Controller.MT_I.WB_Data_clean            2      0.00%      0.00%
system.ruby.L2Cache_Controller.MT_I.Ack_all           17      0.00%      0.00%
system.ruby.L2Cache_Controller.MCT_I.L1_GETS           42      0.00%      0.00%
system.ruby.L2Cache_Controller.MCT_I.L1_PUTX_old        29976      0.00%      0.00%
system.ruby.L2Cache_Controller.MCT_I.WB_Data       226066      0.00%      0.00%
system.ruby.L2Cache_Controller.MCT_I.WB_Data_clean        40482      0.00%      0.00%
system.ruby.L2Cache_Controller.MCT_I.Ack_all       408041      0.00%      0.00%
system.ruby.L2Cache_Controller.I_I.Ack           3639      0.00%      0.00%
system.ruby.L2Cache_Controller.I_I.Ack_all         4681      0.00%      0.00%
system.ruby.L2Cache_Controller.S_I.Ack            317      0.00%      0.00%
system.ruby.L2Cache_Controller.S_I.Ack_all          305      0.00%      0.00%
system.ruby.L2Cache_Controller.ISS.L1_GETS         1896      0.00%      0.00%
system.ruby.L2Cache_Controller.ISS.L1_PUTX_old            5      0.00%      0.00%
system.ruby.L2Cache_Controller.ISS.L2_Replacement_clean       219758      0.00%      0.00%
system.ruby.L2Cache_Controller.ISS.Mem_Data      1109513      0.00%      0.00%
system.ruby.L2Cache_Controller.IS.L1_GET_INSTR            8      0.00%      0.00%
system.ruby.L2Cache_Controller.IS.L2_Replacement_clean          780      0.00%      0.00%
system.ruby.L2Cache_Controller.IS.Mem_Data         3113      0.00%      0.00%
system.ruby.L2Cache_Controller.IM.L2_Replacement_clean       125439      0.00%      0.00%
system.ruby.L2Cache_Controller.IM.Mem_Data      1045073      0.00%      0.00%
system.ruby.L2Cache_Controller.SS_MB.Exclusive_Unblock           15      0.00%      0.00%
system.ruby.L2Cache_Controller.MT_MB.L1_GETS           28      0.00%      0.00%
system.ruby.L2Cache_Controller.MT_MB.L2_Replacement_clean         8233      0.00%      0.00%
system.ruby.L2Cache_Controller.MT_MB.Exclusive_Unblock      2167207      0.00%      0.00%
system.ruby.L2Cache_Controller.MT_IIB.L1_PUTX            7      0.00%      0.00%
system.ruby.L2Cache_Controller.MT_IIB.WB_Data           50      0.00%      0.00%
system.ruby.L2Cache_Controller.MT_IIB.WB_Data_clean           84      0.00%      0.00%
system.ruby.L2Cache_Controller.MT_IIB.Unblock         1833      0.00%      0.00%
system.ruby.L2Cache_Controller.MT_IB.WB_Data          268      0.00%      0.00%
system.ruby.L2Cache_Controller.MT_IB.WB_Data_clean         1565      0.00%      0.00%
system.ruby.L2Cache_Controller.MT_SB.Unblock          134      0.00%      0.00%

---------- End Simulation Statistics   ----------
