
---------- Begin Simulation Statistics ----------
sim_seconds                                  0.392225                       # Number of seconds simulated
sim_ticks                                392225117500                       # Number of ticks simulated
final_tick                               392439702000                       # Number of ticks from beginning of simulation (restored from checkpoints and never reset)
sim_freq                                 1000000000000                       # Frequency of simulated ticks
host_inst_rate                                 107437                       # Simulator instruction rate (inst/s)
host_op_rate                                   208945                       # Simulator op (including micro ops) rate (op/s)
host_tick_rate                              210591769                       # Simulator tick rate (ticks/s)
host_mem_usage                                1562372                       # Number of bytes of host memory used
host_seconds                                  1862.49                       # Real time elapsed on the host
sim_insts                                   200100001                       # Number of instructions simulated
sim_ops                                     389157160                       # Number of ops (including micro ops) simulated
system.voltage_domain.voltage                       1                       # Voltage in Volts
system.clk_domain.clock                          1000                       # Clock period in ticks
system.mem_ctrls.bytes_read::ruby.dir_cntrl0     99251072                       # Number of bytes read from this memory
system.mem_ctrls.bytes_read::total           99251072                       # Number of bytes read from this memory
system.mem_ctrls.bytes_written::ruby.dir_cntrl0     59058304                       # Number of bytes written to this memory
system.mem_ctrls.bytes_written::total        59058304                       # Number of bytes written to this memory
system.mem_ctrls.num_reads::ruby.dir_cntrl0       775399                       # Number of read requests responded to by this memory
system.mem_ctrls.num_reads::total              775399                       # Number of read requests responded to by this memory
system.mem_ctrls.num_writes::ruby.dir_cntrl0       461393                       # Number of write requests responded to by this memory
system.mem_ctrls.num_writes::total             461393                       # Number of write requests responded to by this memory
system.mem_ctrls.bw_read::ruby.dir_cntrl0    253046191                       # Total read bandwidth from this memory (bytes/s)
system.mem_ctrls.bw_read::total             253046191                       # Total read bandwidth from this memory (bytes/s)
system.mem_ctrls.bw_write::ruby.dir_cntrl0    150572468                       # Write bandwidth from this memory (bytes/s)
system.mem_ctrls.bw_write::total            150572468                       # Write bandwidth from this memory (bytes/s)
system.mem_ctrls.bw_total::ruby.dir_cntrl0    403618659                       # Total bandwidth to/from this memory (bytes/s)
system.mem_ctrls.bw_total::total            403618659                       # Total bandwidth to/from this memory (bytes/s)
system.mem_ctrls.readReqs                      775399                       # Number of read requests accepted
system.mem_ctrls.writeReqs                     461393                       # Number of write requests accepted
system.mem_ctrls.readBursts                   1550798                       # Number of DRAM read bursts, including those serviced by the write queue
system.mem_ctrls.writeBursts                   922786                       # Number of DRAM write bursts, including those merged in the write queue
system.mem_ctrls.bytesReadDRAM               99159744                       # Total number of bytes read from DRAM
system.mem_ctrls.bytesReadWrQ                   91328                       # Total number of bytes read from write queue
system.mem_ctrls.bytesWritten                59036352                       # Total number of bytes written to DRAM
system.mem_ctrls.bytesReadSys                99251072                       # Total read bytes from the system interface side
system.mem_ctrls.bytesWrittenSys             59058304                       # Total written bytes from the system interface side
system.mem_ctrls.servicedByWrQ                   1427                       # Number of DRAM read bursts serviced by the write queue
system.mem_ctrls.mergedWrBursts                   319                       # Number of DRAM write bursts merged with an existing one
system.mem_ctrls.neitherReadNorWriteReqs            0                       # Number of requests that are neither read nor write
system.mem_ctrls.perBankRdBursts::0             96358                       # Per bank write bursts
system.mem_ctrls.perBankRdBursts::1             96466                       # Per bank write bursts
system.mem_ctrls.perBankRdBursts::2             97068                       # Per bank write bursts
system.mem_ctrls.perBankRdBursts::3             96320                       # Per bank write bursts
system.mem_ctrls.perBankRdBursts::4             96402                       # Per bank write bursts
system.mem_ctrls.perBankRdBursts::5             96046                       # Per bank write bursts
system.mem_ctrls.perBankRdBursts::6             98182                       # Per bank write bursts
system.mem_ctrls.perBankRdBursts::7             97093                       # Per bank write bursts
system.mem_ctrls.perBankRdBursts::8             97770                       # Per bank write bursts
system.mem_ctrls.perBankRdBursts::9             97554                       # Per bank write bursts
system.mem_ctrls.perBankRdBursts::10            97608                       # Per bank write bursts
system.mem_ctrls.perBankRdBursts::11            96558                       # Per bank write bursts
system.mem_ctrls.perBankRdBursts::12            97508                       # Per bank write bursts
system.mem_ctrls.perBankRdBursts::13            95502                       # Per bank write bursts
system.mem_ctrls.perBankRdBursts::14            96860                       # Per bank write bursts
system.mem_ctrls.perBankRdBursts::15            96076                       # Per bank write bursts
system.mem_ctrls.perBankWrBursts::0             57476                       # Per bank write bursts
system.mem_ctrls.perBankWrBursts::1             57476                       # Per bank write bursts
system.mem_ctrls.perBankWrBursts::2             57482                       # Per bank write bursts
system.mem_ctrls.perBankWrBursts::3             57484                       # Per bank write bursts
system.mem_ctrls.perBankWrBursts::4             57608                       # Per bank write bursts
system.mem_ctrls.perBankWrBursts::5             57608                       # Per bank write bursts
system.mem_ctrls.perBankWrBursts::6             57678                       # Per bank write bursts
system.mem_ctrls.perBankWrBursts::7             58433                       # Per bank write bursts
system.mem_ctrls.perBankWrBursts::8             57638                       # Per bank write bursts
system.mem_ctrls.perBankWrBursts::9             57620                       # Per bank write bursts
system.mem_ctrls.perBankWrBursts::10            57396                       # Per bank write bursts
system.mem_ctrls.perBankWrBursts::11            57866                       # Per bank write bursts
system.mem_ctrls.perBankWrBursts::12            58324                       # Per bank write bursts
system.mem_ctrls.perBankWrBursts::13            57516                       # Per bank write bursts
system.mem_ctrls.perBankWrBursts::14            57358                       # Per bank write bursts
system.mem_ctrls.perBankWrBursts::15            57480                       # Per bank write bursts
system.mem_ctrls.numRdRetry                    138351                       # Number of times read queue was full causing retry
system.mem_ctrls.numWrRetry                      9712                       # Number of times write queue was full causing retry
system.mem_ctrls.totGap                  392220503500                       # Total gap between requests
system.mem_ctrls.readPktSize::0                     0                       # Read request sizes (log2)
system.mem_ctrls.readPktSize::1                     0                       # Read request sizes (log2)
system.mem_ctrls.readPktSize::2                     0                       # Read request sizes (log2)
system.mem_ctrls.readPktSize::3                     0                       # Read request sizes (log2)
system.mem_ctrls.readPktSize::4                     0                       # Read request sizes (log2)
system.mem_ctrls.readPktSize::5                     0                       # Read request sizes (log2)
system.mem_ctrls.readPktSize::6               1550798                       # Read request sizes (log2)
system.mem_ctrls.writePktSize::0                    0                       # Write request sizes (log2)
system.mem_ctrls.writePktSize::1                    0                       # Write request sizes (log2)
system.mem_ctrls.writePktSize::2                    0                       # Write request sizes (log2)
system.mem_ctrls.writePktSize::3                    0                       # Write request sizes (log2)
system.mem_ctrls.writePktSize::4                    0                       # Write request sizes (log2)
system.mem_ctrls.writePktSize::5                    0                       # Write request sizes (log2)
system.mem_ctrls.writePktSize::6               922786                       # Write request sizes (log2)
system.mem_ctrls.rdQLenPdf::0                  392030                       # What read queue length does an incoming req see
system.mem_ctrls.rdQLenPdf::1                  396884                       # What read queue length does an incoming req see
system.mem_ctrls.rdQLenPdf::2                   33210                       # What read queue length does an incoming req see
system.mem_ctrls.rdQLenPdf::3                   40194                       # What read queue length does an incoming req see
system.mem_ctrls.rdQLenPdf::4                   54354                       # What read queue length does an incoming req see
system.mem_ctrls.rdQLenPdf::5                   62379                       # What read queue length does an incoming req see
system.mem_ctrls.rdQLenPdf::6                   68294                       # What read queue length does an incoming req see
system.mem_ctrls.rdQLenPdf::7                   65177                       # What read queue length does an incoming req see
system.mem_ctrls.rdQLenPdf::8                   59620                       # What read queue length does an incoming req see
system.mem_ctrls.rdQLenPdf::9                   53437                       # What read queue length does an incoming req see
system.mem_ctrls.rdQLenPdf::10                  47186                       # What read queue length does an incoming req see
system.mem_ctrls.rdQLenPdf::11                  44454                       # What read queue length does an incoming req see
system.mem_ctrls.rdQLenPdf::12                  31690                       # What read queue length does an incoming req see
system.mem_ctrls.rdQLenPdf::13                  26109                       # What read queue length does an incoming req see
system.mem_ctrls.rdQLenPdf::14                  15109                       # What read queue length does an incoming req see
system.mem_ctrls.rdQLenPdf::15                  12997                       # What read queue length does an incoming req see
system.mem_ctrls.rdQLenPdf::16                    571                       # What read queue length does an incoming req see
system.mem_ctrls.rdQLenPdf::17                    516                       # What read queue length does an incoming req see
system.mem_ctrls.rdQLenPdf::18                    386                       # What read queue length does an incoming req see
system.mem_ctrls.rdQLenPdf::19                    370                       # What read queue length does an incoming req see
system.mem_ctrls.rdQLenPdf::20                    290                       # What read queue length does an incoming req see
system.mem_ctrls.rdQLenPdf::21                    259                       # What read queue length does an incoming req see
system.mem_ctrls.rdQLenPdf::22                    264                       # What read queue length does an incoming req see
system.mem_ctrls.rdQLenPdf::23                    275                       # What read queue length does an incoming req see
system.mem_ctrls.rdQLenPdf::24                    306                       # What read queue length does an incoming req see
system.mem_ctrls.rdQLenPdf::25                    343                       # What read queue length does an incoming req see
system.mem_ctrls.rdQLenPdf::26                    422                       # What read queue length does an incoming req see
system.mem_ctrls.rdQLenPdf::27                    460                       # What read queue length does an incoming req see
system.mem_ctrls.rdQLenPdf::28                    664                       # What read queue length does an incoming req see
system.mem_ctrls.rdQLenPdf::29                    769                       # What read queue length does an incoming req see
system.mem_ctrls.rdQLenPdf::30                  70298                       # What read queue length does an incoming req see
system.mem_ctrls.rdQLenPdf::31                  70054                       # What read queue length does an incoming req see
system.mem_ctrls.wrQLenPdf::0                       1                       # What write queue length does an incoming req see
system.mem_ctrls.wrQLenPdf::1                       1                       # What write queue length does an incoming req see
system.mem_ctrls.wrQLenPdf::2                       1                       # What write queue length does an incoming req see
system.mem_ctrls.wrQLenPdf::3                       1                       # What write queue length does an incoming req see
system.mem_ctrls.wrQLenPdf::4                       1                       # What write queue length does an incoming req see
system.mem_ctrls.wrQLenPdf::5                       1                       # What write queue length does an incoming req see
system.mem_ctrls.wrQLenPdf::6                       1                       # What write queue length does an incoming req see
system.mem_ctrls.wrQLenPdf::7                       1                       # What write queue length does an incoming req see
system.mem_ctrls.wrQLenPdf::8                       1                       # What write queue length does an incoming req see
system.mem_ctrls.wrQLenPdf::9                       1                       # What write queue length does an incoming req see
system.mem_ctrls.wrQLenPdf::10                      1                       # What write queue length does an incoming req see
system.mem_ctrls.wrQLenPdf::11                      1                       # What write queue length does an incoming req see
system.mem_ctrls.wrQLenPdf::12                      1                       # What write queue length does an incoming req see
system.mem_ctrls.wrQLenPdf::13                      1                       # What write queue length does an incoming req see
system.mem_ctrls.wrQLenPdf::14                      1                       # What write queue length does an incoming req see
system.mem_ctrls.wrQLenPdf::15                   1330                       # What write queue length does an incoming req see
system.mem_ctrls.wrQLenPdf::16                   1417                       # What write queue length does an incoming req see
system.mem_ctrls.wrQLenPdf::17                  28694                       # What write queue length does an incoming req see
system.mem_ctrls.wrQLenPdf::18                  31014                       # What write queue length does an incoming req see
system.mem_ctrls.wrQLenPdf::19                  31603                       # What write queue length does an incoming req see
system.mem_ctrls.wrQLenPdf::20                  31851                       # What write queue length does an incoming req see
system.mem_ctrls.wrQLenPdf::21                  33330                       # What write queue length does an incoming req see
system.mem_ctrls.wrQLenPdf::22                  34863                       # What write queue length does an incoming req see
system.mem_ctrls.wrQLenPdf::23                  40660                       # What write queue length does an incoming req see
system.mem_ctrls.wrQLenPdf::24                  45620                       # What write queue length does an incoming req see
system.mem_ctrls.wrQLenPdf::25                  50062                       # What write queue length does an incoming req see
system.mem_ctrls.wrQLenPdf::26                  51949                       # What write queue length does an incoming req see
system.mem_ctrls.wrQLenPdf::27                  57019                       # What write queue length does an incoming req see
system.mem_ctrls.wrQLenPdf::28                  57909                       # What write queue length does an incoming req see
system.mem_ctrls.wrQLenPdf::29                  56641                       # What write queue length does an incoming req see
system.mem_ctrls.wrQLenPdf::30                  55088                       # What write queue length does an incoming req see
system.mem_ctrls.wrQLenPdf::31                  55119                       # What write queue length does an incoming req see
system.mem_ctrls.wrQLenPdf::32                  57546                       # What write queue length does an incoming req see
system.mem_ctrls.wrQLenPdf::33                  20213                       # What write queue length does an incoming req see
system.mem_ctrls.wrQLenPdf::34                   9845                       # What write queue length does an incoming req see
system.mem_ctrls.wrQLenPdf::35                   5968                       # What write queue length does an incoming req see
system.mem_ctrls.wrQLenPdf::36                   5033                       # What write queue length does an incoming req see
system.mem_ctrls.wrQLenPdf::37                   3849                       # What write queue length does an incoming req see
system.mem_ctrls.wrQLenPdf::38                   3321                       # What write queue length does an incoming req see
system.mem_ctrls.wrQLenPdf::39                   2922                       # What write queue length does an incoming req see
system.mem_ctrls.wrQLenPdf::40                   2822                       # What write queue length does an incoming req see
system.mem_ctrls.wrQLenPdf::41                   2652                       # What write queue length does an incoming req see
system.mem_ctrls.wrQLenPdf::42                   2544                       # What write queue length does an incoming req see
system.mem_ctrls.wrQLenPdf::43                   2757                       # What write queue length does an incoming req see
system.mem_ctrls.wrQLenPdf::44                   2944                       # What write queue length does an incoming req see
system.mem_ctrls.wrQLenPdf::45                   3446                       # What write queue length does an incoming req see
system.mem_ctrls.wrQLenPdf::46                   3746                       # What write queue length does an incoming req see
system.mem_ctrls.wrQLenPdf::47                   4721                       # What write queue length does an incoming req see
system.mem_ctrls.wrQLenPdf::48                   5232                       # What write queue length does an incoming req see
system.mem_ctrls.wrQLenPdf::49                   6566                       # What write queue length does an incoming req see
system.mem_ctrls.wrQLenPdf::50                   7369                       # What write queue length does an incoming req see
system.mem_ctrls.wrQLenPdf::51                   8447                       # What write queue length does an incoming req see
system.mem_ctrls.wrQLenPdf::52                   9137                       # What write queue length does an incoming req see
system.mem_ctrls.wrQLenPdf::53                  10838                       # What write queue length does an incoming req see
system.mem_ctrls.wrQLenPdf::54                  12572                       # What write queue length does an incoming req see
system.mem_ctrls.wrQLenPdf::55                  12129                       # What write queue length does an incoming req see
system.mem_ctrls.wrQLenPdf::56                  11386                       # What write queue length does an incoming req see
system.mem_ctrls.wrQLenPdf::57                   8626                       # What write queue length does an incoming req see
system.mem_ctrls.wrQLenPdf::58                   6942                       # What write queue length does an incoming req see
system.mem_ctrls.wrQLenPdf::59                   4979                       # What write queue length does an incoming req see
system.mem_ctrls.wrQLenPdf::60                   3819                       # What write queue length does an incoming req see
system.mem_ctrls.wrQLenPdf::61                   2836                       # What write queue length does an incoming req see
system.mem_ctrls.wrQLenPdf::62                   7256                       # What write queue length does an incoming req see
system.mem_ctrls.wrQLenPdf::63                   5820                       # What write queue length does an incoming req see
system.mem_ctrls.bytesPerActivate::samples       341615                       # Bytes accessed per row activation
system.mem_ctrls.bytesPerActivate::mean    463.085989                       # Bytes accessed per row activation
system.mem_ctrls.bytesPerActivate::gmean   321.541223                       # Bytes accessed per row activation
system.mem_ctrls.bytesPerActivate::stdev   369.635867                       # Bytes accessed per row activation
system.mem_ctrls.bytesPerActivate::0-127         2688      0.79%      0.79% # Bytes accessed per row activation
system.mem_ctrls.bytesPerActivate::128-255       136041     39.82%     40.61% # Bytes accessed per row activation
system.mem_ctrls.bytesPerActivate::256-383        39967     11.70%     52.31% # Bytes accessed per row activation
system.mem_ctrls.bytesPerActivate::384-511        30388      8.90%     61.20% # Bytes accessed per row activation
system.mem_ctrls.bytesPerActivate::512-639        16831      4.93%     66.13% # Bytes accessed per row activation
system.mem_ctrls.bytesPerActivate::640-767        13917      4.07%     70.21% # Bytes accessed per row activation
system.mem_ctrls.bytesPerActivate::768-895        10056      2.94%     73.15% # Bytes accessed per row activation
system.mem_ctrls.bytesPerActivate::896-1023         9852      2.88%     76.03% # Bytes accessed per row activation
system.mem_ctrls.bytesPerActivate::1024-1151        81875     23.97%    100.00% # Bytes accessed per row activation
system.mem_ctrls.bytesPerActivate::total       341615                       # Bytes accessed per row activation
system.mem_ctrls.rdPerTurnAround::samples        57460                       # Reads before turning the bus around for writes
system.mem_ctrls.rdPerTurnAround::mean      26.534372                       # Reads before turning the bus around for writes
system.mem_ctrls.rdPerTurnAround::gmean     21.602305                       # Reads before turning the bus around for writes
system.mem_ctrls.rdPerTurnAround::stdev     53.731508                       # Reads before turning the bus around for writes
system.mem_ctrls.rdPerTurnAround::0-255         57270     99.67%     99.67% # Reads before turning the bus around for writes
system.mem_ctrls.rdPerTurnAround::256-511          153      0.27%     99.94% # Reads before turning the bus around for writes
system.mem_ctrls.rdPerTurnAround::512-767           27      0.05%     99.98% # Reads before turning the bus around for writes
system.mem_ctrls.rdPerTurnAround::768-1023            1      0.00%     99.98% # Reads before turning the bus around for writes
system.mem_ctrls.rdPerTurnAround::1536-1791            1      0.00%     99.99% # Reads before turning the bus around for writes
system.mem_ctrls.rdPerTurnAround::2048-2303            3      0.01%     99.99% # Reads before turning the bus around for writes
system.mem_ctrls.rdPerTurnAround::2304-2559            2      0.00%     99.99% # Reads before turning the bus around for writes
system.mem_ctrls.rdPerTurnAround::3584-3839            1      0.00%    100.00% # Reads before turning the bus around for writes
system.mem_ctrls.rdPerTurnAround::6400-6655            2      0.00%    100.00% # Reads before turning the bus around for writes
system.mem_ctrls.rdPerTurnAround::total         57460                       # Reads before turning the bus around for writes
system.mem_ctrls.wrPerTurnAround::samples        57460                       # Writes before turning the bus around for reads
system.mem_ctrls.wrPerTurnAround::mean      16.053655                       # Writes before turning the bus around for reads
system.mem_ctrls.wrPerTurnAround::gmean     16.049839                       # Writes before turning the bus around for reads
system.mem_ctrls.wrPerTurnAround::stdev      0.385513                       # Writes before turning the bus around for reads
system.mem_ctrls.wrPerTurnAround::16            56021     97.50%     97.50% # Writes before turning the bus around for reads
system.mem_ctrls.wrPerTurnAround::17               19      0.03%     97.53% # Writes before turning the bus around for reads
system.mem_ctrls.wrPerTurnAround::18             1332      2.32%     99.85% # Writes before turning the bus around for reads
system.mem_ctrls.wrPerTurnAround::19               66      0.11%     99.96% # Writes before turning the bus around for reads
system.mem_ctrls.wrPerTurnAround::20               10      0.02%     99.98% # Writes before turning the bus around for reads
system.mem_ctrls.wrPerTurnAround::21                2      0.00%     99.98% # Writes before turning the bus around for reads
system.mem_ctrls.wrPerTurnAround::24                2      0.00%     99.99% # Writes before turning the bus around for reads
system.mem_ctrls.wrPerTurnAround::27                1      0.00%     99.99% # Writes before turning the bus around for reads
system.mem_ctrls.wrPerTurnAround::30                2      0.00%     99.99% # Writes before turning the bus around for reads
system.mem_ctrls.wrPerTurnAround::32                1      0.00%     99.99% # Writes before turning the bus around for reads
system.mem_ctrls.wrPerTurnAround::33                1      0.00%     99.99% # Writes before turning the bus around for reads
system.mem_ctrls.wrPerTurnAround::36                1      0.00%    100.00% # Writes before turning the bus around for reads
system.mem_ctrls.wrPerTurnAround::38                2      0.00%    100.00% # Writes before turning the bus around for reads
system.mem_ctrls.wrPerTurnAround::total         57460                       # Writes before turning the bus around for reads
system.mem_ctrls.totQLat                 124598874838                       # Total ticks spent queuing
system.mem_ctrls.totMemAccLat            153649581088                       # Total ticks spent from burst creation until serviced by the DRAM
system.mem_ctrls.totBusLat                 7746855000                       # Total ticks spent in databus transfers
system.mem_ctrls.avgQLat                     80419.01                       # Average queueing delay per DRAM burst
system.mem_ctrls.avgBusLat                    5000.00                       # Average bus latency per DRAM burst
system.mem_ctrls.avgMemAccLat                99169.01                       # Average memory access latency per DRAM burst
system.mem_ctrls.avgRdBW                       252.81                       # Average DRAM read bandwidth in MiByte/s
system.mem_ctrls.avgWrBW                       150.52                       # Average achieved write bandwidth in MiByte/s
system.mem_ctrls.avgRdBWSys                    253.05                       # Average system read bandwidth in MiByte/s
system.mem_ctrls.avgWrBWSys                    150.57                       # Average system write bandwidth in MiByte/s
system.mem_ctrls.peakBW                      12800.00                       # Theoretical peak bandwidth in MiByte/s
system.mem_ctrls.busUtil                         3.15                       # Data bus utilization in percentage
system.mem_ctrls.busUtilRead                     1.98                       # Data bus utilization in percentage for reads
system.mem_ctrls.busUtilWrite                    1.18                       # Data bus utilization in percentage for writes
system.mem_ctrls.avgRdQLen                       2.32                       # Average read queue length when enqueuing
system.mem_ctrls.avgWrQLen                      25.59                       # Average write queue length when enqueuing
system.mem_ctrls.readRowHits                  1294291                       # Number of row buffer hits during reads
system.mem_ctrls.writeRowHits                  835910                       # Number of row buffer hits during writes
system.mem_ctrls.readRowHitRate                 83.54                       # Row buffer hit rate for reads
system.mem_ctrls.writeRowHitRate                90.62                       # Row buffer hit rate for writes
system.mem_ctrls.avgGap                     317127.30                       # Average gap between requests
system.mem_ctrls.pageHitRate                    86.18                       # Row buffer hit rate, read and write combined
system.mem_ctrls_0.actEnergy               1288677600                       # Energy for activate commands per rank (pJ)
system.mem_ctrls_0.preEnergy                703147500                       # Energy for precharge commands per rank (pJ)
system.mem_ctrls_0.readEnergy              6040218600                       # Energy for read commands per rank (pJ)
system.mem_ctrls_0.writeEnergy             2988867600                       # Energy for write commands per rank (pJ)
system.mem_ctrls_0.refreshEnergy          25631932560                       # Energy for refresh commands per rank (pJ)
system.mem_ctrls_0.actBackEnergy         124864468470                       # Energy for active background per rank (pJ)
system.mem_ctrls_0.preBackEnergy         125930792250                       # Energy for precharge background per rank (pJ)
system.mem_ctrls_0.totalEnergy           287448104580                       # Total energy per rank (pJ)
system.mem_ctrls_0.averagePower            732.473074                       # Core power per rank (mW)
system.mem_ctrls_0.memoryStateTime::IDLE 208404822762                       # Time in different power states
system.mem_ctrls_0.memoryStateTime::REF   13097240000                       # Time in different power states
system.mem_ctrls_0.memoryStateTime::PRE_PDN            0                       # Time in different power states
system.mem_ctrls_0.memoryStateTime::ACT  170722508488                       # Time in different power states
system.mem_ctrls_0.memoryStateTime::ACT_PDN            0                       # Time in different power states
system.mem_ctrls_1.actEnergy               1295700840                       # Energy for activate commands per rank (pJ)
system.mem_ctrls_1.preEnergy                706979625                       # Energy for precharge commands per rank (pJ)
system.mem_ctrls_1.readEnergy              6055904400                       # Energy for read commands per rank (pJ)
system.mem_ctrls_1.writeEnergy             2988563040                       # Energy for write commands per rank (pJ)
system.mem_ctrls_1.refreshEnergy          25631932560                       # Energy for refresh commands per rank (pJ)
system.mem_ctrls_1.actBackEnergy         125468694405                       # Energy for active background per rank (pJ)
system.mem_ctrls_1.preBackEnergy         125400761250                       # Energy for precharge background per rank (pJ)
system.mem_ctrls_1.totalEnergy           287548536120                       # Total energy per rank (pJ)
system.mem_ctrls_1.averagePower            732.729018                       # Core power per rank (mW)
system.mem_ctrls_1.memoryStateTime::IDLE 207618574772                       # Time in different power states
system.mem_ctrls_1.memoryStateTime::REF   13097240000                       # Time in different power states
system.mem_ctrls_1.memoryStateTime::PRE_PDN            0                       # Time in different power states
system.mem_ctrls_1.memoryStateTime::ACT  171508728978                       # Time in different power states
system.mem_ctrls_1.memoryStateTime::ACT_PDN            0                       # Time in different power states
system.ruby_clk_domain.clock                      500                       # Clock period in ticks
system.ruby.phys_mem.bytes_read::gpu.ce      18612572                       # Number of bytes read from this memory
system.ruby.phys_mem.bytes_read::gpu.shader_cores0.data      8975104                       # Number of bytes read from this memory
system.ruby.phys_mem.bytes_read::gpu.shader_cores0.inst          208                       # Number of bytes read from this memory
system.ruby.phys_mem.bytes_read::gpu.shader_cores1.data      8949760                       # Number of bytes read from this memory
system.ruby.phys_mem.bytes_read::gpu.shader_cores1.inst          192                       # Number of bytes read from this memory
system.ruby.phys_mem.bytes_read::gpu.shader_cores2.data      8896992                       # Number of bytes read from this memory
system.ruby.phys_mem.bytes_read::gpu.shader_cores2.inst          192                       # Number of bytes read from this memory
system.ruby.phys_mem.bytes_read::gpu.shader_cores3.data      8961440                       # Number of bytes read from this memory
system.ruby.phys_mem.bytes_read::gpu.shader_cores3.inst          192                       # Number of bytes read from this memory
system.ruby.phys_mem.bytes_read::switch_cpus0.inst   2114927744                       # Number of bytes read from this memory
system.ruby.phys_mem.bytes_read::switch_cpus0.data    293812031                       # Number of bytes read from this memory
system.ruby.phys_mem.bytes_read::total     2463136427                       # Number of bytes read from this memory
system.ruby.phys_mem.bytes_inst_read::gpu.shader_cores0.inst          208                       # Number of instructions bytes read from this memory
system.ruby.phys_mem.bytes_inst_read::gpu.shader_cores1.inst          192                       # Number of instructions bytes read from this memory
system.ruby.phys_mem.bytes_inst_read::gpu.shader_cores2.inst          192                       # Number of instructions bytes read from this memory
system.ruby.phys_mem.bytes_inst_read::gpu.shader_cores3.inst          192                       # Number of instructions bytes read from this memory
system.ruby.phys_mem.bytes_inst_read::switch_cpus0.inst   2114927744                       # Number of instructions bytes read from this memory
system.ruby.phys_mem.bytes_inst_read::total   2114928528                       # Number of instructions bytes read from this memory
system.ruby.phys_mem.bytes_written::gpu.ce     18612572                       # Number of bytes written to this memory
system.ruby.phys_mem.bytes_written::gpu.shader_cores0.data      2171008                       # Number of bytes written to this memory
system.ruby.phys_mem.bytes_written::gpu.shader_cores1.data      2164672                       # Number of bytes written to this memory
system.ruby.phys_mem.bytes_written::gpu.shader_cores2.data      2148352                       # Number of bytes written to this memory
system.ruby.phys_mem.bytes_written::gpu.shader_cores3.data      2166848                       # Number of bytes written to this memory
system.ruby.phys_mem.bytes_written::switch_cpus0.data    202940984                       # Number of bytes written to this memory
system.ruby.phys_mem.bytes_written::total    230204436                       # Number of bytes written to this memory
system.ruby.phys_mem.num_reads::gpu.ce         145416                       # Number of read requests responded to by this memory
system.ruby.phys_mem.num_reads::gpu.shader_cores0.data       108366                       # Number of read requests responded to by this memory
system.ruby.phys_mem.num_reads::gpu.shader_cores0.inst           13                       # Number of read requests responded to by this memory
system.ruby.phys_mem.num_reads::gpu.shader_cores1.data       108085                       # Number of read requests responded to by this memory
system.ruby.phys_mem.num_reads::gpu.shader_cores1.inst           12                       # Number of read requests responded to by this memory
system.ruby.phys_mem.num_reads::gpu.shader_cores2.data       107450                       # Number of read requests responded to by this memory
system.ruby.phys_mem.num_reads::gpu.shader_cores2.inst           12                       # Number of read requests responded to by this memory
system.ruby.phys_mem.num_reads::gpu.shader_cores3.data       108232                       # Number of read requests responded to by this memory
system.ruby.phys_mem.num_reads::gpu.shader_cores3.inst           12                       # Number of read requests responded to by this memory
system.ruby.phys_mem.num_reads::switch_cpus0.inst    264365968                       # Number of read requests responded to by this memory
system.ruby.phys_mem.num_reads::switch_cpus0.data     47558603                       # Number of read requests responded to by this memory
system.ruby.phys_mem.num_reads::total       312502169                       # Number of read requests responded to by this memory
system.ruby.phys_mem.num_writes::gpu.ce        145416                       # Number of write requests responded to by this memory
system.ruby.phys_mem.num_writes::gpu.shader_cores0.data        56482                       # Number of write requests responded to by this memory
system.ruby.phys_mem.num_writes::gpu.shader_cores1.data        56394                       # Number of write requests responded to by this memory
system.ruby.phys_mem.num_writes::gpu.shader_cores2.data        55986                       # Number of write requests responded to by this memory
system.ruby.phys_mem.num_writes::gpu.shader_cores3.data        56420                       # Number of write requests responded to by this memory
system.ruby.phys_mem.num_writes::switch_cpus0.data     32754595                       # Number of write requests responded to by this memory
system.ruby.phys_mem.num_writes::total       33125293                       # Number of write requests responded to by this memory
system.ruby.phys_mem.bw_read::gpu.ce         47453799                       # Total read bandwidth from this memory (bytes/s)
system.ruby.phys_mem.bw_read::gpu.shader_cores0.data     22882533                       # Total read bandwidth from this memory (bytes/s)
system.ruby.phys_mem.bw_read::gpu.shader_cores0.inst          530                       # Total read bandwidth from this memory (bytes/s)
system.ruby.phys_mem.bw_read::gpu.shader_cores1.data     22817917                       # Total read bandwidth from this memory (bytes/s)
system.ruby.phys_mem.bw_read::gpu.shader_cores1.inst          490                       # Total read bandwidth from this memory (bytes/s)
system.ruby.phys_mem.bw_read::gpu.shader_cores2.data     22683382                       # Total read bandwidth from this memory (bytes/s)
system.ruby.phys_mem.bw_read::gpu.shader_cores2.inst          490                       # Total read bandwidth from this memory (bytes/s)
system.ruby.phys_mem.bw_read::gpu.shader_cores3.data     22847695                       # Total read bandwidth from this memory (bytes/s)
system.ruby.phys_mem.bw_read::gpu.shader_cores3.inst          490                       # Total read bandwidth from this memory (bytes/s)
system.ruby.phys_mem.bw_read::switch_cpus0.inst   5392127249                       # Total read bandwidth from this memory (bytes/s)
system.ruby.phys_mem.bw_read::switch_cpus0.data    749090300                       # Total read bandwidth from this memory (bytes/s)
system.ruby.phys_mem.bw_read::total        6279904874                       # Total read bandwidth from this memory (bytes/s)
system.ruby.phys_mem.bw_inst_read::gpu.shader_cores0.inst          530                       # Instruction read bandwidth from this memory (bytes/s)
system.ruby.phys_mem.bw_inst_read::gpu.shader_cores1.inst          490                       # Instruction read bandwidth from this memory (bytes/s)
system.ruby.phys_mem.bw_inst_read::gpu.shader_cores2.inst          490                       # Instruction read bandwidth from this memory (bytes/s)
system.ruby.phys_mem.bw_inst_read::gpu.shader_cores3.inst          490                       # Instruction read bandwidth from this memory (bytes/s)
system.ruby.phys_mem.bw_inst_read::switch_cpus0.inst   5392127249                       # Instruction read bandwidth from this memory (bytes/s)
system.ruby.phys_mem.bw_inst_read::total   5392129248                       # Instruction read bandwidth from this memory (bytes/s)
system.ruby.phys_mem.bw_write::gpu.ce        47453799                       # Write bandwidth from this memory (bytes/s)
system.ruby.phys_mem.bw_write::gpu.shader_cores0.data      5535107                       # Write bandwidth from this memory (bytes/s)
system.ruby.phys_mem.bw_write::gpu.shader_cores1.data      5518953                       # Write bandwidth from this memory (bytes/s)
system.ruby.phys_mem.bw_write::gpu.shader_cores2.data      5477344                       # Write bandwidth from this memory (bytes/s)
system.ruby.phys_mem.bw_write::gpu.shader_cores3.data      5524501                       # Write bandwidth from this memory (bytes/s)
system.ruby.phys_mem.bw_write::switch_cpus0.data    517409454                       # Write bandwidth from this memory (bytes/s)
system.ruby.phys_mem.bw_write::total        586919159                       # Write bandwidth from this memory (bytes/s)
system.ruby.phys_mem.bw_total::gpu.ce        94907599                       # Total bandwidth to/from this memory (bytes/s)
system.ruby.phys_mem.bw_total::gpu.shader_cores0.data     28417640                       # Total bandwidth to/from this memory (bytes/s)
system.ruby.phys_mem.bw_total::gpu.shader_cores0.inst          530                       # Total bandwidth to/from this memory (bytes/s)
system.ruby.phys_mem.bw_total::gpu.shader_cores1.data     28336870                       # Total bandwidth to/from this memory (bytes/s)
system.ruby.phys_mem.bw_total::gpu.shader_cores1.inst          490                       # Total bandwidth to/from this memory (bytes/s)
system.ruby.phys_mem.bw_total::gpu.shader_cores2.data     28160726                       # Total bandwidth to/from this memory (bytes/s)
system.ruby.phys_mem.bw_total::gpu.shader_cores2.inst          490                       # Total bandwidth to/from this memory (bytes/s)
system.ruby.phys_mem.bw_total::gpu.shader_cores3.data     28372196                       # Total bandwidth to/from this memory (bytes/s)
system.ruby.phys_mem.bw_total::gpu.shader_cores3.inst          490                       # Total bandwidth to/from this memory (bytes/s)
system.ruby.phys_mem.bw_total::switch_cpus0.inst   5392127249                       # Total bandwidth to/from this memory (bytes/s)
system.ruby.phys_mem.bw_total::switch_cpus0.data   1266499754                       # Total bandwidth to/from this memory (bytes/s)
system.ruby.phys_mem.bw_total::total       6866824033                       # Total bandwidth to/from this memory (bytes/s)
system.cpu_voltage_domain.voltage                   1                       # Voltage in Volts
system.cpu_clk_domain.clock                       500                       # Clock period in ticks
system.cpu0.apic_clk_domain.clock                8000                       # Clock period in ticks
system.cpu0.workload.num_syscalls                 155                       # Number of system calls
system.cpu0.numCycles                               0                       # number of cpu cycles simulated
system.cpu0.numWorkItemsStarted                     0                       # number of work items this cpu started
system.cpu0.numWorkItemsCompleted                   0                       # number of work items this cpu completed
system.cpu0.committedInsts                          0                       # Number of instructions committed
system.cpu0.committedOps                            0                       # Number of ops (including micro ops) committed
system.cpu0.num_int_alu_accesses                    0                       # Number of integer alu accesses
system.cpu0.num_fp_alu_accesses                     0                       # Number of float alu accesses
system.cpu0.num_func_calls                          0                       # number of times a function call or return occured
system.cpu0.num_conditional_control_insts            0                       # number of instructions that are conditional controls
system.cpu0.num_int_insts                           0                       # number of integer instructions
system.cpu0.num_fp_insts                            0                       # number of float instructions
system.cpu0.num_int_register_reads                  0                       # number of times the integer registers were read
system.cpu0.num_int_register_writes                 0                       # number of times the integer registers were written
system.cpu0.num_fp_register_reads                   0                       # number of times the floating registers were read
system.cpu0.num_fp_register_writes                  0                       # number of times the floating registers were written
system.cpu0.num_mem_refs                            0                       # number of memory refs
system.cpu0.num_load_insts                          0                       # Number of load instructions
system.cpu0.num_store_insts                         0                       # Number of store instructions
system.cpu0.num_idle_cycles                         0                       # Number of idle cycles
system.cpu0.num_busy_cycles                         0                       # Number of busy cycles
system.cpu0.not_idle_fraction                       1                       # Percentage of non-idle cycles
system.cpu0.idle_fraction                           0                       # Percentage of idle cycles
system.cpu0.op_class::No_OpClass                    0                       # Class of executed instruction
system.cpu0.op_class::IntAlu                        0                       # Class of executed instruction
system.cpu0.op_class::IntMult                       0                       # Class of executed instruction
system.cpu0.op_class::IntDiv                        0                       # Class of executed instruction
system.cpu0.op_class::FloatAdd                      0                       # Class of executed instruction
system.cpu0.op_class::FloatCmp                      0                       # Class of executed instruction
system.cpu0.op_class::FloatCvt                      0                       # Class of executed instruction
system.cpu0.op_class::FloatMult                     0                       # Class of executed instruction
system.cpu0.op_class::FloatDiv                      0                       # Class of executed instruction
system.cpu0.op_class::FloatSqrt                     0                       # Class of executed instruction
system.cpu0.op_class::SimdAdd                       0                       # Class of executed instruction
system.cpu0.op_class::SimdAddAcc                    0                       # Class of executed instruction
system.cpu0.op_class::SimdAlu                       0                       # Class of executed instruction
system.cpu0.op_class::SimdCmp                       0                       # Class of executed instruction
system.cpu0.op_class::SimdCvt                       0                       # Class of executed instruction
system.cpu0.op_class::SimdMisc                      0                       # Class of executed instruction
system.cpu0.op_class::SimdMult                      0                       # Class of executed instruction
system.cpu0.op_class::SimdMultAcc                   0                       # Class of executed instruction
system.cpu0.op_class::SimdShift                     0                       # Class of executed instruction
system.cpu0.op_class::SimdShiftAcc                  0                       # Class of executed instruction
system.cpu0.op_class::SimdSqrt                      0                       # Class of executed instruction
system.cpu0.op_class::SimdFloatAdd                  0                       # Class of executed instruction
system.cpu0.op_class::SimdFloatAlu                  0                       # Class of executed instruction
system.cpu0.op_class::SimdFloatCmp                  0                       # Class of executed instruction
system.cpu0.op_class::SimdFloatCvt                  0                       # Class of executed instruction
system.cpu0.op_class::SimdFloatDiv                  0                       # Class of executed instruction
system.cpu0.op_class::SimdFloatMisc                 0                       # Class of executed instruction
system.cpu0.op_class::SimdFloatMult                 0                       # Class of executed instruction
system.cpu0.op_class::SimdFloatMultAcc              0                       # Class of executed instruction
system.cpu0.op_class::SimdFloatSqrt                 0                       # Class of executed instruction
system.cpu0.op_class::MemRead                       0                       # Class of executed instruction
system.cpu0.op_class::MemWrite                      0                       # Class of executed instruction
system.cpu0.op_class::IprAccess                     0                       # Class of executed instruction
system.cpu0.op_class::InstPrefetch                  0                       # Class of executed instruction
system.cpu0.op_class::total                         0                       # Class of executed instruction
system.cpu1.apic_clk_domain.clock                8000                       # Clock period in ticks
system.cpu1.numCycles                               0                       # number of cpu cycles simulated
system.cpu1.numWorkItemsStarted                     0                       # number of work items this cpu started
system.cpu1.numWorkItemsCompleted                   0                       # number of work items this cpu completed
system.cpu1.committedInsts                          0                       # Number of instructions committed
system.cpu1.committedOps                            0                       # Number of ops (including micro ops) committed
system.cpu1.num_int_alu_accesses                    0                       # Number of integer alu accesses
system.cpu1.num_fp_alu_accesses                     0                       # Number of float alu accesses
system.cpu1.num_func_calls                          0                       # number of times a function call or return occured
system.cpu1.num_conditional_control_insts            0                       # number of instructions that are conditional controls
system.cpu1.num_int_insts                           0                       # number of integer instructions
system.cpu1.num_fp_insts                            0                       # number of float instructions
system.cpu1.num_int_register_reads                  0                       # number of times the integer registers were read
system.cpu1.num_int_register_writes                 0                       # number of times the integer registers were written
system.cpu1.num_fp_register_reads                   0                       # number of times the floating registers were read
system.cpu1.num_fp_register_writes                  0                       # number of times the floating registers were written
system.cpu1.num_mem_refs                            0                       # number of memory refs
system.cpu1.num_load_insts                          0                       # Number of load instructions
system.cpu1.num_store_insts                         0                       # Number of store instructions
system.cpu1.num_idle_cycles                         0                       # Number of idle cycles
system.cpu1.num_busy_cycles                         0                       # Number of busy cycles
system.cpu1.not_idle_fraction                       0                       # Percentage of non-idle cycles
system.cpu1.idle_fraction                           1                       # Percentage of idle cycles
system.cpu1.op_class::No_OpClass                    0                       # Class of executed instruction
system.cpu1.op_class::IntAlu                        0                       # Class of executed instruction
system.cpu1.op_class::IntMult                       0                       # Class of executed instruction
system.cpu1.op_class::IntDiv                        0                       # Class of executed instruction
system.cpu1.op_class::FloatAdd                      0                       # Class of executed instruction
system.cpu1.op_class::FloatCmp                      0                       # Class of executed instruction
system.cpu1.op_class::FloatCvt                      0                       # Class of executed instruction
system.cpu1.op_class::FloatMult                     0                       # Class of executed instruction
system.cpu1.op_class::FloatDiv                      0                       # Class of executed instruction
system.cpu1.op_class::FloatSqrt                     0                       # Class of executed instruction
system.cpu1.op_class::SimdAdd                       0                       # Class of executed instruction
system.cpu1.op_class::SimdAddAcc                    0                       # Class of executed instruction
system.cpu1.op_class::SimdAlu                       0                       # Class of executed instruction
system.cpu1.op_class::SimdCmp                       0                       # Class of executed instruction
system.cpu1.op_class::SimdCvt                       0                       # Class of executed instruction
system.cpu1.op_class::SimdMisc                      0                       # Class of executed instruction
system.cpu1.op_class::SimdMult                      0                       # Class of executed instruction
system.cpu1.op_class::SimdMultAcc                   0                       # Class of executed instruction
system.cpu1.op_class::SimdShift                     0                       # Class of executed instruction
system.cpu1.op_class::SimdShiftAcc                  0                       # Class of executed instruction
system.cpu1.op_class::SimdSqrt                      0                       # Class of executed instruction
system.cpu1.op_class::SimdFloatAdd                  0                       # Class of executed instruction
system.cpu1.op_class::SimdFloatAlu                  0                       # Class of executed instruction
system.cpu1.op_class::SimdFloatCmp                  0                       # Class of executed instruction
system.cpu1.op_class::SimdFloatCvt                  0                       # Class of executed instruction
system.cpu1.op_class::SimdFloatDiv                  0                       # Class of executed instruction
system.cpu1.op_class::SimdFloatMisc                 0                       # Class of executed instruction
system.cpu1.op_class::SimdFloatMult                 0                       # Class of executed instruction
system.cpu1.op_class::SimdFloatMultAcc              0                       # Class of executed instruction
system.cpu1.op_class::SimdFloatSqrt                 0                       # Class of executed instruction
system.cpu1.op_class::MemRead                       0                       # Class of executed instruction
system.cpu1.op_class::MemWrite                      0                       # Class of executed instruction
system.cpu1.op_class::IprAccess                     0                       # Class of executed instruction
system.cpu1.op_class::InstPrefetch                  0                       # Class of executed instruction
system.cpu1.op_class::total                         0                       # Class of executed instruction
system.gpu.clk_domain.voltage_domain.voltage            1                       # Voltage in Volts
system.gpu.clk_domain.clock                      1429                       # Clock period in ticks
system.gpu.dram_wrapper.clk_domain.clock          541                       # Clock period in ticks
system.gpu.icnt_wrapper.clk_domain.clock         2858                       # Clock period in ticks
system.ruby.delayHist::bucket_size                256                       # delay histogram for all message
system.ruby.delayHist::max_bucket                2559                       # delay histogram for all message
system.ruby.delayHist::samples                7399100                       # delay histogram for all message
system.ruby.delayHist::mean                  3.665616                       # delay histogram for all message
system.ruby.delayHist::stdev                25.444226                       # delay histogram for all message
system.ruby.delayHist                    |     7390522     99.88%     99.88% |        4402      0.06%     99.94% |        2034      0.03%     99.97% |        1187      0.02%     99.99% |         524      0.01%     99.99% |         281      0.00%    100.00% |         101      0.00%    100.00% |          35      0.00%    100.00% |          14      0.00%    100.00% |           0      0.00%    100.00% # delay histogram for all message
system.ruby.delayHist::total                  7399100                       # delay histogram for all message
system.ruby.outstanding_req_hist::bucket_size            8                      
system.ruby.outstanding_req_hist::max_bucket           79                      
system.ruby.outstanding_req_hist::samples    345627463                      
system.ruby.outstanding_req_hist::mean       1.085224                      
system.ruby.outstanding_req_hist::gmean      1.008061                      
system.ruby.outstanding_req_hist::stdev      2.047378                      
system.ruby.outstanding_req_hist         |   344873264     99.78%     99.78% |       95623      0.03%     99.81% |      141395      0.04%     99.85% |      121109      0.04%     99.89% |       74665      0.02%     99.91% |       30296      0.01%     99.92% |         755      0.00%     99.92% |          97      0.00%     99.92% |      290259      0.08%    100.00% |           0      0.00%    100.00%
system.ruby.outstanding_req_hist::total     345627463                      
system.ruby.latency_hist::bucket_size            1024                      
system.ruby.latency_hist::max_bucket            10239                      
system.ruby.latency_hist::samples           345627462                      
system.ruby.latency_hist::mean               4.746769                      
system.ruby.latency_hist::gmean              1.020201                      
system.ruby.latency_hist::stdev            127.251772                      
system.ruby.latency_hist                 |   345342078     99.92%     99.92% |       20565      0.01%     99.92% |       82361      0.02%     99.95% |       39912      0.01%     99.96% |       59501      0.02%     99.98% |       48141      0.01%     99.99% |       25795      0.01%    100.00% |        8063      0.00%    100.00% |         985      0.00%    100.00% |          61      0.00%    100.00%
system.ruby.latency_hist::total             345627462                      
system.ruby.hit_latency_hist::bucket_size            1                      
system.ruby.hit_latency_hist::max_bucket            9                      
system.ruby.hit_latency_hist::samples       344173557                      
system.ruby.hit_latency_hist::mean                  1                      
system.ruby.hit_latency_hist::gmean                 1                      
system.ruby.hit_latency_hist             |           0      0.00%      0.00% |   344173557    100.00%    100.00% |           0      0.00%    100.00% |           0      0.00%    100.00% |           0      0.00%    100.00% |           0      0.00%    100.00% |           0      0.00%    100.00% |           0      0.00%    100.00% |           0      0.00%    100.00% |           0      0.00%    100.00%
system.ruby.hit_latency_hist::total         344173557                      
system.ruby.miss_latency_hist::bucket_size         1024                      
system.ruby.miss_latency_hist::max_bucket        10239                      
system.ruby.miss_latency_hist::samples        1453905                      
system.ruby.miss_latency_hist::mean        891.695354                      
system.ruby.miss_latency_hist::gmean       116.087400                      
system.ruby.miss_latency_hist::stdev      1749.131733                      
system.ruby.miss_latency_hist            |     1168521     80.37%     80.37% |       20565      1.41%     81.79% |       82361      5.66%     87.45% |       39912      2.75%     90.20% |       59501      4.09%     94.29% |       48141      3.31%     97.60% |       25795      1.77%     99.37% |        8063      0.55%     99.93% |         985      0.07%    100.00% |          61      0.00%    100.00%
system.ruby.miss_latency_hist::total          1453905                      
system.gpu.shader_mmu.numPagefaults                 0                       # Number of Pagefaults
system.gpu.shader_mmu.numPagewalks              45683                       # Number of Pagewalks
system.gpu.shader_mmu.totalRequests             45683                       # Total number of requests
system.gpu.shader_mmu.l2hits                        0                       # Hits in the shared L2
system.gpu.shader_mmu.prefetchHits                  0                       # Number of prefetch hits
system.gpu.shader_mmu.numPrefetches                 0                       # Number of prefetchs
system.gpu.shader_mmu.prefetchFaults                0                       # Number of faults caused by prefetches
system.gpu.shader_mmu.pagefaultLatency::samples            0                       # Latency to complete the pagefault
system.gpu.shader_mmu.pagefaultLatency::mean          nan                       # Latency to complete the pagefault
system.gpu.shader_mmu.pagefaultLatency::gmean          nan                       # Latency to complete the pagefault
system.gpu.shader_mmu.pagefaultLatency::stdev          nan                       # Latency to complete the pagefault
system.gpu.shader_mmu.pagefaultLatency::0            0                       # Latency to complete the pagefault
system.gpu.shader_mmu.pagefaultLatency::1            0                       # Latency to complete the pagefault
system.gpu.shader_mmu.pagefaultLatency::2            0                       # Latency to complete the pagefault
system.gpu.shader_mmu.pagefaultLatency::3            0                       # Latency to complete the pagefault
system.gpu.shader_mmu.pagefaultLatency::4            0                       # Latency to complete the pagefault
system.gpu.shader_mmu.pagefaultLatency::5            0                       # Latency to complete the pagefault
system.gpu.shader_mmu.pagefaultLatency::6            0                       # Latency to complete the pagefault
system.gpu.shader_mmu.pagefaultLatency::7            0                       # Latency to complete the pagefault
system.gpu.shader_mmu.pagefaultLatency::8            0                       # Latency to complete the pagefault
system.gpu.shader_mmu.pagefaultLatency::9            0                       # Latency to complete the pagefault
system.gpu.shader_mmu.pagefaultLatency::10            0                       # Latency to complete the pagefault
system.gpu.shader_mmu.pagefaultLatency::11            0                       # Latency to complete the pagefault
system.gpu.shader_mmu.pagefaultLatency::12            0                       # Latency to complete the pagefault
system.gpu.shader_mmu.pagefaultLatency::13            0                       # Latency to complete the pagefault
system.gpu.shader_mmu.pagefaultLatency::14            0                       # Latency to complete the pagefault
system.gpu.shader_mmu.pagefaultLatency::15            0                       # Latency to complete the pagefault
system.gpu.shader_mmu.pagefaultLatency::16            0                       # Latency to complete the pagefault
system.gpu.shader_mmu.pagefaultLatency::17            0                       # Latency to complete the pagefault
system.gpu.shader_mmu.pagefaultLatency::18            0                       # Latency to complete the pagefault
system.gpu.shader_mmu.pagefaultLatency::19            0                       # Latency to complete the pagefault
system.gpu.shader_mmu.pagefaultLatency::20            0                       # Latency to complete the pagefault
system.gpu.shader_mmu.pagefaultLatency::21            0                       # Latency to complete the pagefault
system.gpu.shader_mmu.pagefaultLatency::22            0                       # Latency to complete the pagefault
system.gpu.shader_mmu.pagefaultLatency::23            0                       # Latency to complete the pagefault
system.gpu.shader_mmu.pagefaultLatency::24            0                       # Latency to complete the pagefault
system.gpu.shader_mmu.pagefaultLatency::25            0                       # Latency to complete the pagefault
system.gpu.shader_mmu.pagefaultLatency::26            0                       # Latency to complete the pagefault
system.gpu.shader_mmu.pagefaultLatency::27            0                       # Latency to complete the pagefault
system.gpu.shader_mmu.pagefaultLatency::28            0                       # Latency to complete the pagefault
system.gpu.shader_mmu.pagefaultLatency::29            0                       # Latency to complete the pagefault
system.gpu.shader_mmu.pagefaultLatency::30            0                       # Latency to complete the pagefault
system.gpu.shader_mmu.pagefaultLatency::31            0                       # Latency to complete the pagefault
system.gpu.shader_mmu.pagefaultLatency::total            0                       # Latency to complete the pagefault
system.gpu.shader_mmu.concurrentWalks::samples        45683                       # Number of outstanding walks
system.gpu.shader_mmu.concurrentWalks::mean            0                       # Number of outstanding walks
system.gpu.shader_mmu.concurrentWalks::gmean            0                       # Number of outstanding walks
system.gpu.shader_mmu.concurrentWalks::stdev            0                       # Number of outstanding walks
system.gpu.shader_mmu.concurrentWalks::0        45683    100.00%    100.00% # Number of outstanding walks
system.gpu.shader_mmu.concurrentWalks::1            0      0.00%    100.00% # Number of outstanding walks
system.gpu.shader_mmu.concurrentWalks::2            0      0.00%    100.00% # Number of outstanding walks
system.gpu.shader_mmu.concurrentWalks::3            0      0.00%    100.00% # Number of outstanding walks
system.gpu.shader_mmu.concurrentWalks::4            0      0.00%    100.00% # Number of outstanding walks
system.gpu.shader_mmu.concurrentWalks::5            0      0.00%    100.00% # Number of outstanding walks
system.gpu.shader_mmu.concurrentWalks::6            0      0.00%    100.00% # Number of outstanding walks
system.gpu.shader_mmu.concurrentWalks::7            0      0.00%    100.00% # Number of outstanding walks
system.gpu.shader_mmu.concurrentWalks::8            0      0.00%    100.00% # Number of outstanding walks
system.gpu.shader_mmu.concurrentWalks::9            0      0.00%    100.00% # Number of outstanding walks
system.gpu.shader_mmu.concurrentWalks::10            0      0.00%    100.00% # Number of outstanding walks
system.gpu.shader_mmu.concurrentWalks::11            0      0.00%    100.00% # Number of outstanding walks
system.gpu.shader_mmu.concurrentWalks::12            0      0.00%    100.00% # Number of outstanding walks
system.gpu.shader_mmu.concurrentWalks::13            0      0.00%    100.00% # Number of outstanding walks
system.gpu.shader_mmu.concurrentWalks::14            0      0.00%    100.00% # Number of outstanding walks
system.gpu.shader_mmu.concurrentWalks::15            0      0.00%    100.00% # Number of outstanding walks
system.gpu.shader_mmu.concurrentWalks::total        45683                       # Number of outstanding walks
system.gpu.shader_mmu.pagewalkLatency::samples        45683                       # Latency to complete the pagewalk
system.gpu.shader_mmu.pagewalkLatency::mean            0                       # Latency to complete the pagewalk
system.gpu.shader_mmu.pagewalkLatency::gmean            0                       # Latency to complete the pagewalk
system.gpu.shader_mmu.pagewalkLatency::stdev            0                       # Latency to complete the pagewalk
system.gpu.shader_mmu.pagewalkLatency::0        45683    100.00%    100.00% # Latency to complete the pagewalk
system.gpu.shader_mmu.pagewalkLatency::1            0      0.00%    100.00% # Latency to complete the pagewalk
system.gpu.shader_mmu.pagewalkLatency::2            0      0.00%    100.00% # Latency to complete the pagewalk
system.gpu.shader_mmu.pagewalkLatency::3            0      0.00%    100.00% # Latency to complete the pagewalk
system.gpu.shader_mmu.pagewalkLatency::4            0      0.00%    100.00% # Latency to complete the pagewalk
system.gpu.shader_mmu.pagewalkLatency::5            0      0.00%    100.00% # Latency to complete the pagewalk
system.gpu.shader_mmu.pagewalkLatency::6            0      0.00%    100.00% # Latency to complete the pagewalk
system.gpu.shader_mmu.pagewalkLatency::7            0      0.00%    100.00% # Latency to complete the pagewalk
system.gpu.shader_mmu.pagewalkLatency::8            0      0.00%    100.00% # Latency to complete the pagewalk
system.gpu.shader_mmu.pagewalkLatency::9            0      0.00%    100.00% # Latency to complete the pagewalk
system.gpu.shader_mmu.pagewalkLatency::10            0      0.00%    100.00% # Latency to complete the pagewalk
system.gpu.shader_mmu.pagewalkLatency::11            0      0.00%    100.00% # Latency to complete the pagewalk
system.gpu.shader_mmu.pagewalkLatency::12            0      0.00%    100.00% # Latency to complete the pagewalk
system.gpu.shader_mmu.pagewalkLatency::13            0      0.00%    100.00% # Latency to complete the pagewalk
system.gpu.shader_mmu.pagewalkLatency::14            0      0.00%    100.00% # Latency to complete the pagewalk
system.gpu.shader_mmu.pagewalkLatency::15            0      0.00%    100.00% # Latency to complete the pagewalk
system.gpu.shader_mmu.pagewalkLatency::16            0      0.00%    100.00% # Latency to complete the pagewalk
system.gpu.shader_mmu.pagewalkLatency::17            0      0.00%    100.00% # Latency to complete the pagewalk
system.gpu.shader_mmu.pagewalkLatency::18            0      0.00%    100.00% # Latency to complete the pagewalk
system.gpu.shader_mmu.pagewalkLatency::19            0      0.00%    100.00% # Latency to complete the pagewalk
system.gpu.shader_mmu.pagewalkLatency::20            0      0.00%    100.00% # Latency to complete the pagewalk
system.gpu.shader_mmu.pagewalkLatency::21            0      0.00%    100.00% # Latency to complete the pagewalk
system.gpu.shader_mmu.pagewalkLatency::22            0      0.00%    100.00% # Latency to complete the pagewalk
system.gpu.shader_mmu.pagewalkLatency::23            0      0.00%    100.00% # Latency to complete the pagewalk
system.gpu.shader_mmu.pagewalkLatency::24            0      0.00%    100.00% # Latency to complete the pagewalk
system.gpu.shader_mmu.pagewalkLatency::25            0      0.00%    100.00% # Latency to complete the pagewalk
system.gpu.shader_mmu.pagewalkLatency::26            0      0.00%    100.00% # Latency to complete the pagewalk
system.gpu.shader_mmu.pagewalkLatency::27            0      0.00%    100.00% # Latency to complete the pagewalk
system.gpu.shader_mmu.pagewalkLatency::28            0      0.00%    100.00% # Latency to complete the pagewalk
system.gpu.shader_mmu.pagewalkLatency::29            0      0.00%    100.00% # Latency to complete the pagewalk
system.gpu.shader_mmu.pagewalkLatency::30            0      0.00%    100.00% # Latency to complete the pagewalk
system.gpu.shader_mmu.pagewalkLatency::31            0      0.00%    100.00% # Latency to complete the pagewalk
system.gpu.shader_mmu.pagewalkLatency::total        45683                       # Latency to complete the pagewalk
system.gpu.kernels_started                          2                       # Number of kernels started
system.gpu.kernels_completed                        2                       # Number of kernels completed
system.gpu.ce.device_dtb.hits                       0                       # Number of hits in this TLB
system.gpu.ce.device_dtb.misses                     0                       # Number of misses in this TLB
system.gpu.ce.device_dtb.hitRate                  nan                       # Hit rate for this TLB
system.gpu.ce.host_dtb.hits                     99734                       # Number of hits in this TLB
system.gpu.ce.host_dtb.misses                   45683                       # Number of misses in this TLB
system.gpu.ce.host_dtb.hitRate               0.685848                       # Hit rate for this TLB
system.gpu.ce.numOperations                         8                       # Number of copy/memset operations
system.gpu.ce.opBytesRead                    18612572                       # Number of copy bytes read
system.gpu.ce.opBytesWritten                 18612572                       # Number of copy/memset bytes written
system.gpu.ce.opTimeTicks                  6296643158                       # Total time spent in copy/memset operations
system.gpu.shader_cores0.itb.hits                   0                       # Number of hits in this TLB
system.gpu.shader_cores0.itb.misses                 0                       # Number of misses in this TLB
system.gpu.shader_cores0.itb.hitRate              nan                       # Hit rate for this TLB
system.gpu.shader_cores0.local_loads                0                       # Number of loads from local space
system.gpu.shader_cores0.local_stores               0                       # Number of stores to local space
system.gpu.shader_cores0.shared_loads         1032192                       # Number of loads from shared space
system.gpu.shader_cores0.shared_stores         786432                       # Number of stores to shared space
system.gpu.shader_cores0.param_kernel_loads      1872896                       # Number of loads from kernel parameter space
system.gpu.shader_cores0.param_local_loads            0                       # Number of loads from local parameter space
system.gpu.shader_cores0.param_local_stores            0                       # Number of stores to local parameter space
system.gpu.shader_cores0.const_loads                0                       # Number of loads from constant space
system.gpu.shader_cores0.tex_loads                  0                       # Number of loads from texture space
system.gpu.shader_cores0.global_loads         2120784                       # Number of loads from global space
system.gpu.shader_cores0.global_stores         542752                       # Number of stores to global space
system.gpu.shader_cores0.surf_loads                 0                       # Number of loads from surface space
system.gpu.shader_cores0.generic_loads              0                       # Number of loads from generic spaces (global, shared, local)
system.gpu.shader_cores0.generic_stores             0                       # Number of stores to generic spaces (global, shared, local)
system.gpu.shader_cores0.inst_cache_requests           13                       # Number of instruction cache requests sent
system.gpu.shader_cores0.inst_cache_retries            0                       # Number of instruction cache retries
system.gpu.shader_cores0.inst_counts::0             0                       # Inst counts: 1: ALU, 2: MAD, 3: CTRL, 4: SFU, 5: MEM, 6: TEX, 7: NOP
system.gpu.shader_cores0.inst_counts::1      33376512                       # Inst counts: 1: ALU, 2: MAD, 3: CTRL, 4: SFU, 5: MEM, 6: TEX, 7: NOP
system.gpu.shader_cores0.inst_counts::2        526368                       # Inst counts: 1: ALU, 2: MAD, 3: CTRL, 4: SFU, 5: MEM, 6: TEX, 7: NOP
system.gpu.shader_cores0.inst_counts::3       4967408                       # Inst counts: 1: ALU, 2: MAD, 3: CTRL, 4: SFU, 5: MEM, 6: TEX, 7: NOP
system.gpu.shader_cores0.inst_counts::4       1572864                       # Inst counts: 1: ALU, 2: MAD, 3: CTRL, 4: SFU, 5: MEM, 6: TEX, 7: NOP
system.gpu.shader_cores0.inst_counts::5       6355056                       # Inst counts: 1: ALU, 2: MAD, 3: CTRL, 4: SFU, 5: MEM, 6: TEX, 7: NOP
system.gpu.shader_cores0.inst_counts::6             0                       # Inst counts: 1: ALU, 2: MAD, 3: CTRL, 4: SFU, 5: MEM, 6: TEX, 7: NOP
system.gpu.shader_cores0.inst_counts::7             0                       # Inst counts: 1: ALU, 2: MAD, 3: CTRL, 4: SFU, 5: MEM, 6: TEX, 7: NOP
system.gpu.shader_cores0.activeCycles         2257910                       # Number of cycles this shader was executing a CTA
system.gpu.shader_cores0.notStalledCycles      1175586                       # Number of cycles this shader was actually executing at least one instance
system.gpu.shader_cores0.instInstances       46798208                       # Total instructions executed by all PEs in the core
system.gpu.shader_cores0.instPerCycle       20.726339                       # Instruction instances per cycle
system.gpu.shader_cores0.kernels_completed            2                       # Number of kernels completed
system.gpu.shader_cores0.lsq.data_tlb.hits            0                       # Number of hits in this TLB
system.gpu.shader_cores0.lsq.data_tlb.misses            0                       # Number of misses in this TLB
system.gpu.shader_cores0.lsq.data_tlb.hitRate          nan                       # Hit rate for this TLB
system.gpu.shader_cores0.lsq.warpInstBufActive::samples   3225060085                       # Histogram of number of active warp inst buffers at a given time
[...]
system.ruby.L1Cache_Controller.NP.Store::total       461014                      
system.ruby.L1Cache_Controller.NP.Inv    |         117      4.29%      4.29% |           0      0.00%      4.29% |         643     23.59%     27.88% |         627     23.00%     50.88% |         642     23.55%     74.43% |         683     25.06%     99.49% |           0      0.00%     99.49% |          14      0.51%    100.00%
system.ruby.L1Cache_Controller.NP.Inv::total         2726                      
system.ruby.L1Cache_Controller.I.Load    |         970     49.92%     49.92% |           0      0.00%     49.92% |         223     11.48%     61.40% |         268     13.79%     75.19% |         243     12.51%     87.70% |         239     12.30%    100.00% |           0      0.00%    100.00% |           0      0.00%    100.00%
system.ruby.L1Cache_Controller.I.Load::total         1943                      
system.ruby.L1Cache_Controller.I.Ifetch  |        3614    100.00%    100.00% |           0      0.00%    100.00% |           0      0.00%    100.00% |           0      0.00%    100.00% |           0      0.00%    100.00% |           0      0.00%    100.00% |           0      0.00%    100.00% |           0      0.00%    100.00%
system.ruby.L1Cache_Controller.I.Ifetch::total         3614                      
system.ruby.L1Cache_Controller.I.Store   |         332      5.08%      5.08% |           0      0.00%      5.08% |        1559     23.86%     28.95% |        1615     24.72%     53.67% |        1504     23.02%     76.69% |        1523     23.31%    100.00% |           0      0.00%    100.00% |           0      0.00%    100.00%
system.ruby.L1Cache_Controller.I.Store::total         6533                      
system.ruby.L1Cache_Controller.I.L1_Replacement |         691      0.62%      0.62% |           0      0.00%      0.62% |       27615     24.87%     25.49% |       27448     24.72%     50.21% |       27643     24.90%     75.11% |       27624     24.88%     99.99% |           0      0.00%     99.99% |          16      0.01%    100.00%
system.ruby.L1Cache_Controller.I.L1_Replacement::total       111037                      
system.ruby.L1Cache_Controller.S.Load    |          81      0.05%      0.05% |           0      0.00%      0.05% |       39055     25.04%     25.09% |       39529     25.34%     50.43% |       38267     24.53%     74.96% |       39058     25.04%    100.00% |           0      0.00%    100.00% |           0      0.00%    100.00%
system.ruby.L1Cache_Controller.S.Load::total       155990                      
system.ruby.L1Cache_Controller.S.Ifetch  |   263900510    100.00%    100.00% |           0      0.00%    100.00% |           0      0.00%    100.00% |           0      0.00%    100.00% |           0      0.00%    100.00% |           0      0.00%    100.00% |           0      0.00%    100.00% |           0      0.00%    100.00%
system.ruby.L1Cache_Controller.S.Ifetch::total    263900510                      
system.ruby.L1Cache_Controller.S.Store   |           0      0.00%      0.00% |           0      0.00%      0.00% |        1976     25.20%     25.20% |        2009     25.62%     50.82% |        1830     23.34%     74.15% |        2027     25.85%    100.00% |           0      0.00%    100.00% |           0      0.00%    100.00%
system.ruby.L1Cache_Controller.S.Store::total         7842                      
system.ruby.L1Cache_Controller.S.Inv     |        3946     14.56%     14.56% |           0      0.00%     14.56% |        5787     21.35%     35.91% |        5965     22.01%     57.92% |        5644     20.82%     78.74% |        5750     21.22%     99.96% |           0      0.00%     99.96% |          11      0.04%    100.00%
system.ruby.L1Cache_Controller.S.Inv::total        27103                      
system.ruby.L1Cache_Controller.S.L1_Replacement |      461728     99.44%     99.44% |           0      0.00%     99.44% |         643      0.14%     99.58% |         629      0.14%     99.71% |         642      0.14%     99.85% |         686      0.15%    100.00% |           0      0.00%    100.00% |          14      0.00%    100.00%
system.ruby.L1Cache_Controller.S.L1_Replacement::total       464342                      
system.ruby.L1Cache_Controller.E.Load    |    10588976     98.65%     98.65% |           0      0.00%     98.65% |       36379      0.34%     98.99% |       35554      0.33%     99.32% |       36433      0.34%     99.66% |       36203      0.34%    100.00% |           0      0.00%    100.00% |           0      0.00%    100.00%
system.ruby.L1Cache_Controller.E.Load::total     10733545                      
system.ruby.L1Cache_Controller.E.Store   |        2373      3.64%      3.64% |           0      0.00%      3.64% |       15753     24.15%     27.79% |       15705     24.08%     51.87% |       15677     24.03%     75.90% |       15718     24.10%    100.00% |           0      0.00%    100.00% |           0      0.00%    100.00%
system.ruby.L1Cache_Controller.E.Store::total        65226                      
system.ruby.L1Cache_Controller.E.Inv     |         932      3.58%      3.58% |           0      0.00%      3.58% |        6349     24.42%     28.00% |        6206     23.87%     51.88% |        6254     24.05%     75.93% |        6258     24.07%    100.00% |           0      0.00%    100.00% |           0      0.00%    100.00%
system.ruby.L1Cache_Controller.E.Inv::total        25999                      
system.ruby.L1Cache_Controller.E.L1_Replacement |      237254     61.04%     61.04% |           0      0.00%     61.04% |        1439      0.37%     61.41% |        1508      0.39%     61.80% |        1539      0.40%     62.20% |        1510      0.39%     62.59% |           0      0.00%     62.59% |      145414     37.41%    100.00%
system.ruby.L1Cache_Controller.E.L1_Replacement::total       388664                      
system.ruby.L1Cache_Controller.E.Fwd_GETS |           1      0.02%      0.02% |           0      0.00%      0.02% |        1419     25.23%     25.24% |        1287     22.88%     48.12% |        1491     26.51%     74.63% |        1427     25.37%    100.00% |           0      0.00%    100.00% |           0      0.00%    100.00%
system.ruby.L1Cache_Controller.E.Fwd_GETS::total         5625                      
system.ruby.L1Cache_Controller.M.Load    |    33593708     99.99%     99.99% |           0      0.00%     99.99% |        1203      0.00%     99.99% |        1161      0.00%     99.99% |        1321      0.00%    100.00% |        1228      0.00%    100.00% |           0      0.00%    100.00% |           0      0.00%    100.00%
system.ruby.L1Cache_Controller.M.Load::total     33598621                      
system.ruby.L1Cache_Controller.M.Store   |    35575255     99.60%     99.60% |           0      0.00%     99.60% |       36203      0.10%     99.70% |       36067      0.10%     99.80% |       35981      0.10%     99.90% |       36159      0.10%    100.00% |           0      0.00%    100.00% |           0      0.00%    100.00%
system.ruby.L1Cache_Controller.M.Store::total     35719665                      
system.ruby.L1Cache_Controller.M.Inv     |         880      1.38%      1.38% |           0      0.00%      1.38% |       15594     24.44%     25.82% |       15590     24.43%     50.25% |       15962     25.02%     75.27% |       15765     24.71%     99.98% |           0      0.00%     99.98% |          13      0.02%    100.00%
system.ruby.L1Cache_Controller.M.Inv::total        63804                      
system.ruby.L1Cache_Controller.M.L1_Replacement |      313656     67.05%     67.05% |           0      0.00%     67.05% |        2288      0.49%     67.54% |        2474      0.53%     68.07% |        1844      0.39%     68.46% |        2165      0.46%     68.92% |           0      0.00%     68.92% |      145380     31.08%    100.00%
system.ruby.L1Cache_Controller.M.L1_Replacement::total       467807                      
system.ruby.L1Cache_Controller.M.Fwd_GETX |           1      0.01%      0.01% |           0      0.00%      0.01% |        2192     25.86%     25.87% |        2094     24.70%     50.57% |        2054     24.23%     74.79% |        2137     25.21%    100.00% |           0      0.00%    100.00% |           0      0.00%    100.00%
system.ruby.L1Cache_Controller.M.Fwd_GETX::total         8478                      
system.ruby.L1Cache_Controller.M.Fwd_GETS |           2      0.27%      0.27% |           0      0.00%      0.27% |         205     27.78%     28.05% |         169     22.90%     50.95% |         145     19.65%     70.60% |         194     26.29%     96.88% |           0      0.00%     96.88% |          23      3.12%    100.00%
system.ruby.L1Cache_Controller.M.Fwd_GETS::total          738                      
system.ruby.L1Cache_Controller.IS.L1_Replacement |           0      0.00%      0.00% |           0      0.00%      0.00% |           0      0.00%      0.00% |           4      0.00%      0.00% |           0      0.00%      0.00% |           0      0.00%      0.00% |           0      0.00%      0.00% |     1967849    100.00%    100.00%
system.ruby.L1Cache_Controller.IS.L1_Replacement::total      1967853                      
system.ruby.L1Cache_Controller.IS.Data_Exclusive |      240773     49.57%     49.57% |           0      0.00%     49.57% |       24960      5.14%     54.71% |       24706      5.09%     59.79% |       24961      5.14%     64.93% |       24913      5.13%     70.06% |           0      0.00%     70.06% |      145414     29.94%    100.00%
system.ruby.L1Cache_Controller.IS.Data_Exclusive::total       485727                      
system.ruby.L1Cache_Controller.IS.DataS_fromL1 |           8      0.13%      0.13% |           0      0.00%      0.13% |        1575     24.75%     24.88% |        1689     26.54%     51.42% |        1528     24.01%     75.44% |        1561     24.53%     99.97% |           0      0.00%     99.97% |           2      0.03%    100.00%
system.ruby.L1Cache_Controller.IS.DataS_fromL1::total         6363                      
system.ruby.L1Cache_Controller.IS.Data_all_Acks |      465528     95.70%     95.70% |           0      0.00%     95.70% |        5207      1.07%     96.77% |        5458      1.12%     97.90% |        4952      1.02%     98.91% |        5281      1.09%    100.00% |           0      0.00%    100.00% |           0      0.00%    100.00%
system.ruby.L1Cache_Controller.IS.Data_all_Acks::total       486426                      
system.ruby.L1Cache_Controller.IM.L1_Replacement |           0      0.00%      0.00% |           0      0.00%      0.00% |           0      0.00%      0.00% |           0      0.00%      0.00% |           0      0.00%      0.00% |           0      0.00%      0.00% |           0      0.00%      0.00% |     1979294    100.00%    100.00%
system.ruby.L1Cache_Controller.IM.L1_Replacement::total      1979294                      
system.ruby.L1Cache_Controller.IM.Data   |           0      0.00%      0.00% |           0      0.00%      0.00% |           0      0.00%      0.00% |           1     25.00%     25.00% |           0      0.00%     25.00% |           3     75.00%    100.00% |           0      0.00%    100.00% |           0      0.00%    100.00%
system.ruby.L1Cache_Controller.IM.Data::total            4                      
system.ruby.L1Cache_Controller.IM.Data_all_Acks |      311954     66.67%     66.67% |           0      0.00%     66.67% |        2629      0.56%     67.23% |        2722      0.58%     67.81% |        2580      0.55%     68.36% |        2608      0.56%     68.92% |           0      0.00%     68.92% |      145416     31.08%    100.00%
system.ruby.L1Cache_Controller.IM.Data_all_Acks::total       467909                      
system.ruby.L1Cache_Controller.SM.Inv    |           0      0.00%      0.00% |           0      0.00%      0.00% |          79     21.58%     21.58% |         110     30.05%     51.64% |          82     22.40%     74.04% |          95     25.96%    100.00% |           0      0.00%    100.00% |           0      0.00%    100.00%
system.ruby.L1Cache_Controller.SM.Inv::total          366                      
system.ruby.L1Cache_Controller.SM.Ack    |           0      0.00%      0.00% |           0      0.00%      0.00% |        1897     25.37%     25.37% |        1899     25.40%     50.78% |        1748     23.38%     74.16% |        1932     25.84%    100.00% |           0      0.00%    100.00% |           0      0.00%    100.00%
system.ruby.L1Cache_Controller.SM.Ack::total         7476                      
system.ruby.L1Cache_Controller.SM.Ack_all |           0      0.00%      0.00% |           0      0.00%      0.00% |        1897     25.36%     25.36% |        1900     25.40%     50.76% |        1748     23.37%     74.13% |        1935     25.87%    100.00% |           0      0.00%    100.00% |           0      0.00%    100.00%
system.ruby.L1Cache_Controller.SM.Ack_all::total         7480                      
system.ruby.L1Cache_Controller.M_I.Inv   |           0      0.00%      0.00% |           0      0.00%      0.00% |          20     18.87%     18.87% |          28     26.42%     45.28% |          22     20.75%     66.04% |          36     33.96%    100.00% |           0      0.00%    100.00% |           0      0.00%    100.00%
system.ruby.L1Cache_Controller.M_I.Inv::total          106                      
system.ruby.L1Cache_Controller.M_I.WB_Ack |      550910     64.33%     64.33% |           0      0.00%     64.33% |        3707      0.43%     64.76% |        3954      0.46%     65.23% |        3361      0.39%     65.62% |        3639      0.42%     66.04% |           0      0.00%     66.04% |      290794     33.96%    100.00%
system.ruby.L1Cache_Controller.M_I.WB_Ack::total       856365                      
system.ruby.L1Cache_Controller.SINK_WB_ACK.WB_Ack |           0      0.00%      0.00% |           0      0.00%      0.00% |          20     18.87%     18.87% |          28     26.42%     45.28% |          22     20.75%     66.04% |          36     33.96%    100.00% |           0      0.00%    100.00% |           0      0.00%    100.00%
system.ruby.L1Cache_Controller.SINK_WB_ACK.WB_Ack::total          106                      
system.ruby.L2Cache_Controller.L1_GET_INSTR       465507      0.00%      0.00%
system.ruby.L2Cache_Controller.L1_GETS         513099      0.00%      0.00%
system.ruby.L2Cache_Controller.L1_GETX         468186      0.00%      0.00%
system.ruby.L2Cache_Controller.L1_UPGRADE         7799      0.00%      0.00%
system.ruby.L2Cache_Controller.L1_PUTX         856365      0.00%      0.00%
system.ruby.L2Cache_Controller.L1_PUTX_old          156      0.00%      0.00%
system.ruby.L2Cache_Controller.L2_Replacement       398543      0.00%      0.00%
system.ruby.L2Cache_Controller.L2_Replacement_clean       375515      0.00%      0.00%
system.ruby.L2Cache_Controller.Mem_Data        775399      0.00%      0.00%
system.ruby.L2Cache_Controller.Mem_Ack         774058      0.00%      0.00%
system.ruby.L2Cache_Controller.WB_Data          64643      0.00%      0.00%
system.ruby.L2Cache_Controller.WB_Data_clean         5630      0.00%      0.00%
system.ruby.L2Cache_Controller.Ack              10704      0.00%      0.00%
system.ruby.L2Cache_Controller.Ack_all          38010      0.00%      0.00%
system.ruby.L2Cache_Controller.Unblock           6363      0.00%      0.00%
system.ruby.L2Cache_Controller.Exclusive_Unblock       961116      0.00%      0.00%
system.ruby.L2Cache_Controller.NP.L1_GET_INSTR         3846      0.00%      0.00%
system.ruby.L2Cache_Controller.NP.L1_GETS       380066      0.00%      0.00%
system.ruby.L2Cache_Controller.NP.L1_GETX       391487      0.00%      0.00%
system.ruby.L2Cache_Controller.NP.L1_PUTX_old           51      0.00%      0.00%
system.ruby.L2Cache_Controller.SS.L1_GET_INSTR       461629      0.00%      0.00%
system.ruby.L2Cache_Controller.SS.L1_GETS         1721      0.00%      0.00%
system.ruby.L2Cache_Controller.SS.L1_GETX            4      0.00%      0.00%
system.ruby.L2Cache_Controller.SS.L1_UPGRADE         7476      0.00%      0.00%
system.ruby.L2Cache_Controller.SS.L2_Replacement           83      0.00%      0.00%
system.ruby.L2Cache_Controller.SS.L2_Replacement_clean        11928      0.00%      0.00%
system.ruby.L2Cache_Controller.M.L1_GETS       114724      0.00%      0.00%
system.ruby.L2Cache_Controller.M.L1_GETX        67944      0.00%      0.00%
system.ruby.L2Cache_Controller.M.L2_Replacement       396779      0.00%      0.00%
system.ruby.L2Cache_Controller.M.L2_Replacement_clean       275359      0.00%      0.00%
system.ruby.L2Cache_Controller.MT.L1_GETS         6363      0.00%      0.00%
system.ruby.L2Cache_Controller.MT.L1_GETX         8478      0.00%      0.00%
system.ruby.L2Cache_Controller.MT.L1_PUTX       856365      0.00%      0.00%
system.ruby.L2Cache_Controller.MT.L2_Replacement         1681      0.00%      0.00%
system.ruby.L2Cache_Controller.MT.L2_Replacement_clean        88228      0.00%      0.00%
system.ruby.L2Cache_Controller.M_I.L1_GETS            6      0.00%      0.00%
system.ruby.L2Cache_Controller.M_I.L1_PUTX_old           55      0.00%      0.00%
system.ruby.L2Cache_Controller.M_I.Mem_Ack       774058      0.00%      0.00%
system.ruby.L2Cache_Controller.MT_I.L1_PUTX_old            1      0.00%      0.00%
system.ruby.L2Cache_Controller.MT_I.WB_Data         1055      0.00%      0.00%
system.ruby.L2Cache_Controller.MT_I.Ack_all          626      0.00%      0.00%
system.ruby.L2Cache_Controller.MCT_I.L1_PUTX_old           49      0.00%      0.00%
system.ruby.L2Cache_Controller.MCT_I.WB_Data        62850      0.00%      0.00%
system.ruby.L2Cache_Controller.MCT_I.WB_Data_clean            5      0.00%      0.00%
system.ruby.L2Cache_Controller.MCT_I.Ack_all        25373      0.00%      0.00%
system.ruby.L2Cache_Controller.I_I.Ack          10621      0.00%      0.00%
system.ruby.L2Cache_Controller.I_I.Ack_all        11928      0.00%      0.00%
system.ruby.L2Cache_Controller.S_I.Ack             83      0.00%      0.00%
system.ruby.L2Cache_Controller.S_I.Ack_all           83      0.00%      0.00%
system.ruby.L2Cache_Controller.ISS.L1_GETS         9063      0.00%      0.00%
system.ruby.L2Cache_Controller.ISS.Mem_Data       371003      0.00%      0.00%
system.ruby.L2Cache_Controller.IS.L1_GET_INSTR           32      0.00%      0.00%
system.ruby.L2Cache_Controller.IS.L1_GETS         1072      0.00%      0.00%
system.ruby.L2Cache_Controller.IS.Mem_Data        12909      0.00%      0.00%
system.ruby.L2Cache_Controller.IM.L1_GETX          153      0.00%      0.00%
system.ruby.L2Cache_Controller.IM.Mem_Data       391487      0.00%      0.00%
system.ruby.L2Cache_Controller.SS_MB.L1_GETS            8      0.00%      0.00%
system.ruby.L2Cache_Controller.SS_MB.L1_GETX           90      0.00%      0.00%
system.ruby.L2Cache_Controller.SS_MB.L1_UPGRADE          323      0.00%      0.00%
system.ruby.L2Cache_Controller.SS_MB.Exclusive_Unblock         7480      0.00%      0.00%
system.ruby.L2Cache_Controller.MT_MB.L1_GETS           56      0.00%      0.00%
system.ruby.L2Cache_Controller.MT_MB.L1_GETX           30      0.00%      0.00%
system.ruby.L2Cache_Controller.MT_MB.Exclusive_Unblock       953636      0.00%      0.00%
system.ruby.L2Cache_Controller.MT_IIB.L1_GETS           20      0.00%      0.00%
system.ruby.L2Cache_Controller.MT_IIB.WB_Data           18      0.00%      0.00%
system.ruby.L2Cache_Controller.MT_IIB.WB_Data_clean          153      0.00%      0.00%
system.ruby.L2Cache_Controller.MT_IIB.Unblock         6192      0.00%      0.00%
system.ruby.L2Cache_Controller.MT_IB.WB_Data          720      0.00%      0.00%
system.ruby.L2Cache_Controller.MT_IB.WB_Data_clean         5472      0.00%      0.00%
system.ruby.L2Cache_Controller.MT_SB.Unblock          171      0.00%      0.00%

---------- End Simulation Statistics   ----------
