
---------- Begin Simulation Statistics ----------
sim_seconds                                  0.392256                       # Number of seconds simulated
sim_ticks                                392256262500                       # Number of ticks simulated
final_tick                               392470847000                       # Number of ticks from beginning of simulation (restored from checkpoints and never reset)
sim_freq                                 1000000000000                       # Frequency of simulated ticks
host_inst_rate                                 106921                       # Simulator instruction rate (inst/s)
host_op_rate                                   207942                       # Simulator op (including micro ops) rate (op/s)
host_tick_rate                              209598193                       # Simulator tick rate (ticks/s)
host_mem_usage                                1562372                       # Number of bytes of host memory used
host_seconds                                  1871.47                       # Real time elapsed on the host
sim_insts                                   200100001                       # Number of instructions simulated
sim_ops                                     389157160                       # Number of ops (including micro ops) simulated
system.voltage_domain.voltage                       1                       # Voltage in Volts
system.clk_domain.clock                          1000                       # Clock period in ticks
system.mem_ctrls.bytes_read::ruby.dir_cntrl0     99314176                       # Number of bytes read from this memory
system.mem_ctrls.bytes_read::total           99314176                       # Number of bytes read from this memory
system.mem_ctrls.bytes_written::ruby.dir_cntrl0     59090048                       # Number of bytes written to this memory
system.mem_ctrls.bytes_written::total        59090048                       # Number of bytes written to this memory
system.mem_ctrls.num_reads::ruby.dir_cntrl0       775892                       # Number of read requests responded to by this memory
system.mem_ctrls.num_reads::total              775892                       # Number of read requests responded to by this memory
system.mem_ctrls.num_writes::ruby.dir_cntrl0       461641                       # Number of write requests responded to by this memory
system.mem_ctrls.num_writes::total             461641                       # Number of write requests responded to by this memory
system.mem_ctrls.bw_read::ruby.dir_cntrl0    253186974                       # Total read bandwidth from this memory (bytes/s)
system.mem_ctrls.bw_read::total             253186974                       # Total read bandwidth from this memory (bytes/s)
system.mem_ctrls.bw_write::ruby.dir_cntrl0    150641439                       # Write bandwidth from this memory (bytes/s)
system.mem_ctrls.bw_write::total            150641439                       # Write bandwidth from this memory (bytes/s)
system.mem_ctrls.bw_total::ruby.dir_cntrl0    403828413                       # Total bandwidth to/from this memory (bytes/s)
system.mem_ctrls.bw_total::total            403828413                       # Total bandwidth to/from this memory (bytes/s)
system.mem_ctrls.readReqs                      775892                       # Number of read requests accepted
system.mem_ctrls.writeReqs                     461641                       # Number of write requests accepted
system.mem_ctrls.readBursts                   1551784                       # Number of DRAM read bursts, including those serviced by the write queue
system.mem_ctrls.writeBursts                   923282                       # Number of DRAM write bursts, including those merged in the write queue
system.mem_ctrls.bytesReadDRAM               99219776                       # Total number of bytes read from DRAM
system.mem_ctrls.bytesReadWrQ                   94400                       # Total number of bytes read from write queue
system.mem_ctrls.bytesWritten                59067968                       # Total number of bytes written to DRAM
system.mem_ctrls.bytesReadSys                99314176                       # Total read bytes from the system interface side
system.mem_ctrls.bytesWrittenSys             59090048                       # Total written bytes from the system interface side
system.mem_ctrls.servicedByWrQ                   1475                       # Number of DRAM read bursts serviced by the write queue
system.mem_ctrls.mergedWrBursts                   321                       # Number of DRAM write bursts merged with an existing one
system.mem_ctrls.neitherReadNorWriteReqs            0                       # Number of requests that are neither read nor write
system.mem_ctrls.perBankRdBursts::0             96428                       # Per bank write bursts
system.mem_ctrls.perBankRdBursts::1             96470                       # Per bank write bursts
system.mem_ctrls.perBankRdBursts::2             97078                       # Per bank write bursts
system.mem_ctrls.perBankRdBursts::3             96328                       # Per bank write bursts
system.mem_ctrls.perBankRdBursts::4             96402                       # Per bank write bursts
system.mem_ctrls.perBankRdBursts::5             96046                       # Per bank write bursts
system.mem_ctrls.perBankRdBursts::6             98184                       # Per bank write bursts
system.mem_ctrls.perBankRdBursts::7             97089                       # Per bank write bursts
system.mem_ctrls.perBankRdBursts::8             97772                       # Per bank write bursts
system.mem_ctrls.perBankRdBursts::9             97558                       # Per bank write bursts
system.mem_ctrls.perBankRdBursts::10            97688                       # Per bank write bursts
system.mem_ctrls.perBankRdBursts::11            96670                       # Per bank write bursts
system.mem_ctrls.perBankRdBursts::12            97646                       # Per bank write bursts
system.mem_ctrls.perBankRdBursts::13            95710                       # Per bank write bursts
system.mem_ctrls.perBankRdBursts::14            97028                       # Per bank write bursts
system.mem_ctrls.perBankRdBursts::15            96212                       # Per bank write bursts
system.mem_ctrls.perBankWrBursts::0             57538                       # Per bank write bursts
system.mem_ctrls.perBankWrBursts::1             57516                       # Per bank write bursts
system.mem_ctrls.perBankWrBursts::2             57490                       # Per bank write bursts
system.mem_ctrls.perBankWrBursts::3             57488                       # Per bank write bursts
system.mem_ctrls.perBankWrBursts::4             57608                       # Per bank write bursts
system.mem_ctrls.perBankWrBursts::5             57608                       # Per bank write bursts
system.mem_ctrls.perBankWrBursts::6             57678                       # Per bank write bursts
system.mem_ctrls.perBankWrBursts::7             58431                       # Per bank write bursts
system.mem_ctrls.perBankWrBursts::8             57638                       # Per bank write bursts
system.mem_ctrls.perBankWrBursts::9             57620                       # Per bank write bursts
system.mem_ctrls.perBankWrBursts::10            57396                       # Per bank write bursts
system.mem_ctrls.perBankWrBursts::11            57866                       # Per bank write bursts
system.mem_ctrls.perBankWrBursts::12            58386                       # Per bank write bursts
system.mem_ctrls.perBankWrBursts::13            57600                       # Per bank write bursts
system.mem_ctrls.perBankWrBursts::14            57474                       # Per bank write bursts
system.mem_ctrls.perBankWrBursts::15            57600                       # Per bank write bursts
system.mem_ctrls.numRdRetry                    136625                       # Number of times read queue was full causing retry
system.mem_ctrls.numWrRetry                     15213                       # Number of times write queue was full causing retry
system.mem_ctrls.totGap                  392251648500                       # Total gap between requests
system.mem_ctrls.readPktSize::0                     0                       # Read request sizes (log2)
system.mem_ctrls.readPktSize::1                     0                       # Read request sizes (log2)
system.mem_ctrls.readPktSize::2                     0                       # Read request sizes (log2)
system.mem_ctrls.readPktSize::3                     0                       # Read request sizes (log2)
system.mem_ctrls.readPktSize::4                     0                       # Read request sizes (log2)
system.mem_ctrls.readPktSize::5                     0                       # Read request sizes (log2)
system.mem_ctrls.readPktSize::6               1551784                       # Read request sizes (log2)
system.mem_ctrls.writePktSize::0                    0                       # Write request sizes (log2)
system.mem_ctrls.writePktSize::1                    0                       # Write request sizes (log2)
system.mem_ctrls.writePktSize::2                    0                       # Write request sizes (log2)
system.mem_ctrls.writePktSize::3                    0                       # Write request sizes (log2)
system.mem_ctrls.writePktSize::4                    0                       # Write request sizes (log2)
system.mem_ctrls.writePktSize::5                    0                       # Write request sizes (log2)
system.mem_ctrls.writePktSize::6               923282                       # Write request sizes (log2)
system.mem_ctrls.rdQLenPdf::0                  393513                       # What read queue length does an incoming req see
system.mem_ctrls.rdQLenPdf::1                  396701                       # What read queue length does an incoming req see
system.mem_ctrls.rdQLenPdf::2                   33139                       # What read queue length does an incoming req see
system.mem_ctrls.rdQLenPdf::3                   38075                       # What read queue length does an incoming req see
system.mem_ctrls.rdQLenPdf::4                   50626                       # What read queue length does an incoming req see
system.mem_ctrls.rdQLenPdf::5                   64363                       # What read queue length does an incoming req see
system.mem_ctrls.rdQLenPdf::6                   69666                       # What read queue length does an incoming req see
system.mem_ctrls.rdQLenPdf::7                   61596                       # What read queue length does an incoming req see
system.mem_ctrls.rdQLenPdf::8                   56734                       # What read queue length does an incoming req see
system.mem_ctrls.rdQLenPdf::9                   53518                       # What read queue length does an incoming req see
system.mem_ctrls.rdQLenPdf::10                  49322                       # What read queue length does an incoming req see
system.mem_ctrls.rdQLenPdf::11                  46425                       # What read queue length does an incoming req see
system.mem_ctrls.rdQLenPdf::12                  32022                       # What read queue length does an incoming req see
system.mem_ctrls.rdQLenPdf::13                  26498                       # What read queue length does an incoming req see
system.mem_ctrls.rdQLenPdf::14                  16522                       # What read queue length does an incoming req see
system.mem_ctrls.rdQLenPdf::15                  14554                       # What read queue length does an incoming req see
system.mem_ctrls.rdQLenPdf::16                    701                       # What read queue length does an incoming req see
system.mem_ctrls.rdQLenPdf::17                    641                       # What read queue length does an incoming req see
system.mem_ctrls.rdQLenPdf::18                    484                       # What read queue length does an incoming req see
system.mem_ctrls.rdQLenPdf::19                    452                       # What read queue length does an incoming req see
system.mem_ctrls.rdQLenPdf::20                    342                       # What read queue length does an incoming req see
system.mem_ctrls.rdQLenPdf::21                    321                       # What read queue length does an incoming req see
system.mem_ctrls.rdQLenPdf::22                    371                       # What read queue length does an incoming req see
system.mem_ctrls.rdQLenPdf::23                    378                       # What read queue length does an incoming req see
system.mem_ctrls.rdQLenPdf::24                    396                       # What read queue length does an incoming req see
system.mem_ctrls.rdQLenPdf::25                    454                       # What read queue length does an incoming req see
system.mem_ctrls.rdQLenPdf::26                    616                       # What read queue length does an incoming req see
system.mem_ctrls.rdQLenPdf::27                    699                       # What read queue length does an incoming req see
system.mem_ctrls.rdQLenPdf::28                    887                       # What read queue length does an incoming req see
system.mem_ctrls.rdQLenPdf::29                   1011                       # What read queue length does an incoming req see
system.mem_ctrls.rdQLenPdf::30                  69817                       # What read queue length does an incoming req see
system.mem_ctrls.rdQLenPdf::31                  69465                       # What read queue length does an incoming req see
system.mem_ctrls.wrQLenPdf::0                       1                       # What write queue length does an incoming req see
system.mem_ctrls.wrQLenPdf::1                       1                       # What write queue length does an incoming req see
system.mem_ctrls.wrQLenPdf::2                       1                       # What write queue length does an incoming req see
system.mem_ctrls.wrQLenPdf::3                       1                       # What write queue length does an incoming req see
system.mem_ctrls.wrQLenPdf::4                       1                       # What write queue length does an incoming req see
system.mem_ctrls.wrQLenPdf::5                       1                       # What write queue length does an incoming req see
system.mem_ctrls.wrQLenPdf::6                       1                       # What write queue length does an incoming req see
system.mem_ctrls.wrQLenPdf::7                       1                       # What write queue length does an incoming req see
system.mem_ctrls.wrQLenPdf::8                       1                       # What write queue length does an incoming req see
system.mem_ctrls.wrQLenPdf::9                       1                       # What write queue length does an incoming req see
system.mem_ctrls.wrQLenPdf::10                      1                       # What write queue length does an incoming req see
system.mem_ctrls.wrQLenPdf::11                      1                       # What write queue length does an incoming req see
system.mem_ctrls.wrQLenPdf::12                      1                       # What write queue length does an incoming req see
system.mem_ctrls.wrQLenPdf::13                      1                       # What write queue length does an incoming req see
system.mem_ctrls.wrQLenPdf::14                      1                       # What write queue length does an incoming req see
system.mem_ctrls.wrQLenPdf::15                   1300                       # What write queue length does an incoming req see
system.mem_ctrls.wrQLenPdf::16                   1389                       # What write queue length does an incoming req see
system.mem_ctrls.wrQLenPdf::17                  28513                       # What write queue length does an incoming req see
system.mem_ctrls.wrQLenPdf::18                  30871                       # What write queue length does an incoming req see
system.mem_ctrls.wrQLenPdf::19                  31336                       # What write queue length does an incoming req see
system.mem_ctrls.wrQLenPdf::20                  31716                       # What write queue length does an incoming req see
system.mem_ctrls.wrQLenPdf::21                  32872                       # What write queue length does an incoming req see
system.mem_ctrls.wrQLenPdf::22                  34748                       # What write queue length does an incoming req see
system.mem_ctrls.wrQLenPdf::23                  41582                       # What write queue length does an incoming req see
system.mem_ctrls.wrQLenPdf::24                  48206                       # What write queue length does an incoming req see
system.mem_ctrls.wrQLenPdf::25                  53790                       # What write queue length does an incoming req see
system.mem_ctrls.wrQLenPdf::26                  54261                       # What write queue length does an incoming req see
system.mem_ctrls.wrQLenPdf::27                  55576                       # What write queue length does an incoming req see
system.mem_ctrls.wrQLenPdf::28                  55822                       # What write queue length does an incoming req see
system.mem_ctrls.wrQLenPdf::29                  56566                       # What write queue length does an incoming req see
system.mem_ctrls.wrQLenPdf::30                  57231                       # What write queue length does an incoming req see
system.mem_ctrls.wrQLenPdf::31                  54003                       # What write queue length does an incoming req see
system.mem_ctrls.wrQLenPdf::32                  54564                       # What write queue length does an incoming req see
system.mem_ctrls.wrQLenPdf::33                  18002                       # What write queue length does an incoming req see
system.mem_ctrls.wrQLenPdf::34                   8036                       # What write queue length does an incoming req see
system.mem_ctrls.wrQLenPdf::35                   6274                       # What write queue length does an incoming req see
system.mem_ctrls.wrQLenPdf::36                   5159                       # What write queue length does an incoming req see
system.mem_ctrls.wrQLenPdf::37                   4221                       # What write queue length does an incoming req see
system.mem_ctrls.wrQLenPdf::38                   3587                       # What write queue length does an incoming req see
system.mem_ctrls.wrQLenPdf::39                   3211                       # What write queue length does an incoming req see
system.mem_ctrls.wrQLenPdf::40                   2846                       # What write queue length does an incoming req see
system.mem_ctrls.wrQLenPdf::41                   2807                       # What write queue length does an incoming req see
system.mem_ctrls.wrQLenPdf::42                   2684                       # What write queue length does an incoming req see
system.mem_ctrls.wrQLenPdf::43                   2787                       # What write queue length does an incoming req see
system.mem_ctrls.wrQLenPdf::44                   2931                       # What write queue length does an incoming req see
system.mem_ctrls.wrQLenPdf::45                   3340                       # What write queue length does an incoming req see
system.mem_ctrls.wrQLenPdf::46                   3574                       # What write queue length does an incoming req see
system.mem_ctrls.wrQLenPdf::47                   4436                       # What write queue length does an incoming req see
system.mem_ctrls.wrQLenPdf::48                   4900                       # What write queue length does an incoming req see
system.mem_ctrls.wrQLenPdf::49                   6033                       # What write queue length does an incoming req see
system.mem_ctrls.wrQLenPdf::50                   6694                       # What write queue length does an incoming req see
system.mem_ctrls.wrQLenPdf::51                   7808                       # What write queue length does an incoming req see
system.mem_ctrls.wrQLenPdf::52                   8527                       # What write queue length does an incoming req see
system.mem_ctrls.wrQLenPdf::53                  10118                       # What write queue length does an incoming req see
system.mem_ctrls.wrQLenPdf::54                  12060                       # What write queue length does an incoming req see
system.mem_ctrls.wrQLenPdf::55                  11667                       # What write queue length does an incoming req see
system.mem_ctrls.wrQLenPdf::56                  10533                       # What write queue length does an incoming req see
system.mem_ctrls.wrQLenPdf::57                   8311                       # What write queue length does an incoming req see
system.mem_ctrls.wrQLenPdf::58                   6841                       # What write queue length does an incoming req see
system.mem_ctrls.wrQLenPdf::59                   5144                       # What write queue length does an incoming req see
system.mem_ctrls.wrQLenPdf::60                   4024                       # What write queue length does an incoming req see
system.mem_ctrls.wrQLenPdf::61                   3048                       # What write queue length does an incoming req see
system.mem_ctrls.wrQLenPdf::62                  10268                       # What write queue length does an incoming req see
system.mem_ctrls.wrQLenPdf::63                   8729                       # What write queue length does an incoming req see
system.mem_ctrls.bytesPerActivate::samples       340970                       # Bytes accessed per row activation
system.mem_ctrls.bytesPerActivate::mean    464.230777                       # Bytes accessed per row activation
system.mem_ctrls.bytesPerActivate::gmean   322.443394                       # Bytes accessed per row activation
system.mem_ctrls.bytesPerActivate::stdev   369.831456                       # Bytes accessed per row activation
system.mem_ctrls.bytesPerActivate::0-127         2575      0.76%      0.76% # Bytes accessed per row activation
system.mem_ctrls.bytesPerActivate::128-255       135756     39.81%     40.57% # Bytes accessed per row activation
system.mem_ctrls.bytesPerActivate::256-383        38895     11.41%     51.98% # Bytes accessed per row activation
system.mem_ctrls.bytesPerActivate::384-511        30201      8.86%     60.83% # Bytes accessed per row activation
system.mem_ctrls.bytesPerActivate::512-639        18598      5.45%     66.29% # Bytes accessed per row activation
system.mem_ctrls.bytesPerActivate::640-767        13147      3.86%     70.14% # Bytes accessed per row activation
system.mem_ctrls.bytesPerActivate::768-895         9974      2.93%     73.07% # Bytes accessed per row activation
system.mem_ctrls.bytesPerActivate::896-1023         9381      2.75%     75.82% # Bytes accessed per row activation
system.mem_ctrls.bytesPerActivate::1024-1151        82443     24.18%    100.00% # Bytes accessed per row activation
system.mem_ctrls.bytesPerActivate::total       340970                       # Bytes accessed per row activation
system.mem_ctrls.rdPerTurnAround::samples        57486                       # Reads before turning the bus around for writes
system.mem_ctrls.rdPerTurnAround::mean      26.510820                       # Reads before turning the bus around for writes
system.mem_ctrls.rdPerTurnAround::gmean     21.189439                       # Reads before turning the bus around for writes
system.mem_ctrls.rdPerTurnAround::stdev     51.126424                       # Reads before turning the bus around for writes
system.mem_ctrls.rdPerTurnAround::0-255         57328     99.73%     99.73% # Reads before turning the bus around for writes
system.mem_ctrls.rdPerTurnAround::256-511           25      0.04%     99.77% # Reads before turning the bus around for writes
system.mem_ctrls.rdPerTurnAround::512-767          124      0.22%     99.98% # Reads before turning the bus around for writes
system.mem_ctrls.rdPerTurnAround::2048-2303            3      0.01%     99.99% # Reads before turning the bus around for writes
system.mem_ctrls.rdPerTurnAround::2304-2559            2      0.00%     99.99% # Reads before turning the bus around for writes
system.mem_ctrls.rdPerTurnAround::3584-3839            1      0.00%     99.99% # Reads before turning the bus around for writes
system.mem_ctrls.rdPerTurnAround::4096-4351            1      0.00%    100.00% # Reads before turning the bus around for writes
system.mem_ctrls.rdPerTurnAround::4352-4607            1      0.00%    100.00% # Reads before turning the bus around for writes
system.mem_ctrls.rdPerTurnAround::4608-4863            1      0.00%    100.00% # Reads before turning the bus around for writes
system.mem_ctrls.rdPerTurnAround::total         57486                       # Reads before turning the bus around for writes
system.mem_ctrls.wrPerTurnAround::samples        57486                       # Writes before turning the bus around for reads
system.mem_ctrls.wrPerTurnAround::mean      16.054987                       # Writes before turning the bus around for reads
system.mem_ctrls.wrPerTurnAround::gmean     16.050582                       # Writes before turning the bus around for reads
system.mem_ctrls.wrPerTurnAround::stdev      0.423646                       # Writes before turning the bus around for reads
system.mem_ctrls.wrPerTurnAround::16            56063     97.52%     97.52% # Writes before turning the bus around for reads
system.mem_ctrls.wrPerTurnAround::17               26      0.05%     97.57% # Writes before turning the bus around for reads
system.mem_ctrls.wrPerTurnAround::18             1298      2.26%     99.83% # Writes before turning the bus around for reads
system.mem_ctrls.wrPerTurnAround::19               64      0.11%     99.94% # Writes before turning the bus around for reads
system.mem_ctrls.wrPerTurnAround::20               10      0.02%     99.96% # Writes before turning the bus around for reads
system.mem_ctrls.wrPerTurnAround::21                3      0.01%     99.96% # Writes before turning the bus around for reads
system.mem_ctrls.wrPerTurnAround::22                1      0.00%     99.96% # Writes before turning the bus around for reads
system.mem_ctrls.wrPerTurnAround::23                2      0.00%     99.97% # Writes before turning the bus around for reads
system.mem_ctrls.wrPerTurnAround::24                4      0.01%     99.97% # Writes before turning the bus around for reads
system.mem_ctrls.wrPerTurnAround::25                1      0.00%     99.98% # Writes before turning the bus around for reads
system.mem_ctrls.wrPerTurnAround::26                1      0.00%     99.98% # Writes before turning the bus around for reads
system.mem_ctrls.wrPerTurnAround::28                2      0.00%     99.98% # Writes before turning the bus around for reads
system.mem_ctrls.wrPerTurnAround::29                1      0.00%     99.98% # Writes before turning the bus around for reads
system.mem_ctrls.wrPerTurnAround::30                1      0.00%     99.98% # Writes before turning the bus around for reads
system.mem_ctrls.wrPerTurnAround::32                1      0.00%     99.99% # Writes before turning the bus around for reads
system.mem_ctrls.wrPerTurnAround::33                1      0.00%     99.99% # Writes before turning the bus around for reads
system.mem_ctrls.wrPerTurnAround::34                2      0.00%     99.99% # Writes before turning the bus around for reads
system.mem_ctrls.wrPerTurnAround::35                1      0.00%     99.99% # Writes before turning the bus around for reads
system.mem_ctrls.wrPerTurnAround::36                3      0.01%    100.00% # Writes before turning the bus around for reads
system.mem_ctrls.wrPerTurnAround::38                1      0.00%    100.00% # Writes before turning the bus around for reads
system.mem_ctrls.wrPerTurnAround::total         57486                       # Writes before turning the bus around for reads
system.mem_ctrls.totQLat                 125619864545                       # Total ticks spent queuing
system.mem_ctrls.totMemAccLat            154688158295                       # Total ticks spent from burst creation until serviced by the DRAM
system.mem_ctrls.totBusLat                 7751545000                       # Total ticks spent in databus transfers
system.mem_ctrls.avgQLat                     81028.92                       # Average queueing delay per DRAM burst
system.mem_ctrls.avgBusLat                    5000.00                       # Average bus latency per DRAM burst
system.mem_ctrls.avgMemAccLat                99778.92                       # Average memory access latency per DRAM burst
system.mem_ctrls.avgRdBW                       252.95                       # Average DRAM read bandwidth in MiByte/s
system.mem_ctrls.avgWrBW                       150.59                       # Average achieved write bandwidth in MiByte/s
system.mem_ctrls.avgRdBWSys                    253.19                       # Average system read bandwidth in MiByte/s
system.mem_ctrls.avgWrBWSys                    150.64                       # Average system write bandwidth in MiByte/s
system.mem_ctrls.peakBW                      12800.00                       # Theoretical peak bandwidth in MiByte/s
system.mem_ctrls.busUtil                         3.15                       # Data bus utilization in percentage
system.mem_ctrls.busUtilRead                     1.98                       # Data bus utilization in percentage for reads
system.mem_ctrls.busUtilWrite                    1.18                       # Data bus utilization in percentage for writes
system.mem_ctrls.avgRdQLen                       2.32                       # Average read queue length when enqueuing
system.mem_ctrls.avgWrQLen                      25.74                       # Average write queue length when enqueuing
system.mem_ctrls.readRowHits                  1295823                       # Number of row buffer hits during reads
system.mem_ctrls.writeRowHits                  836455                       # Number of row buffer hits during writes
system.mem_ctrls.readRowHitRate                 83.58                       # Row buffer hit rate for reads
system.mem_ctrls.writeRowHitRate                90.63                       # Row buffer hit rate for writes
system.mem_ctrls.avgGap                     316962.58                       # Average gap between requests
system.mem_ctrls.pageHitRate                    86.21                       # Row buffer hit rate, read and write combined
system.mem_ctrls_0.actEnergy               1286341560                       # Energy for activate commands per rank (pJ)
system.mem_ctrls_0.preEnergy                701872875                       # Energy for precharge commands per rank (pJ)
system.mem_ctrls_0.readEnergy              6040920600                       # Energy for read commands per rank (pJ)
system.mem_ctrls_0.writeEnergy             2989593360                       # Energy for write commands per rank (pJ)
system.mem_ctrls_0.refreshEnergy          25633966800                       # Energy for refresh commands per rank (pJ)
system.mem_ctrls_0.actBackEnergy         124836857100                       # Energy for active background per rank (pJ)
system.mem_ctrls_0.preBackEnergy         125973699750                       # Energy for precharge background per rank (pJ)
system.mem_ctrls_0.totalEnergy           287463252045                       # Total energy per rank (pJ)
system.mem_ctrls_0.averagePower            732.453542                       # Core power per rank (mW)
system.mem_ctrls_0.memoryStateTime::IDLE 208476789006                       # Time in different power states
system.mem_ctrls_0.memoryStateTime::REF   13098280000                       # Time in different power states
system.mem_ctrls_0.memoryStateTime::PRE_PDN            0                       # Time in different power states
system.mem_ctrls_0.memoryStateTime::ACT  170680647244                       # Time in different power states
system.mem_ctrls_0.memoryStateTime::ACT_PDN            0                       # Time in different power states
system.mem_ctrls_1.actEnergy               1293160680                       # Energy for activate commands per rank (pJ)
system.mem_ctrls_1.preEnergy                705593625                       # Energy for precharge commands per rank (pJ)
system.mem_ctrls_1.readEnergy              6062518800                       # Energy for read commands per rank (pJ)
system.mem_ctrls_1.writeEnergy             2991038400                       # Energy for write commands per rank (pJ)
system.mem_ctrls_1.refreshEnergy          25633966800                       # Energy for refresh commands per rank (pJ)
system.mem_ctrls_1.actBackEnergy         125406345240                       # Energy for active background per rank (pJ)
system.mem_ctrls_1.preBackEnergy         125474140500                       # Energy for precharge background per rank (pJ)
system.mem_ctrls_1.totalEnergy           287566764045                       # Total energy per rank (pJ)
system.mem_ctrls_1.averagePower            732.717316                       # Core power per rank (mW)
system.mem_ctrls_1.memoryStateTime::IDLE 207736692261                       # Time in different power states
system.mem_ctrls_1.memoryStateTime::REF   13098280000                       # Time in different power states
system.mem_ctrls_1.memoryStateTime::PRE_PDN            0                       # Time in different power states
system.mem_ctrls_1.memoryStateTime::ACT  171420716489                       # Time in different power states
system.mem_ctrls_1.memoryStateTime::ACT_PDN            0                       # Time in different power states
system.ruby_clk_domain.clock                      500                       # Clock period in ticks
system.ruby.phys_mem.bytes_read::gpu.ce      18612572                       # Number of bytes read from this memory
system.ruby.phys_mem.bytes_read::gpu.shader_cores0.data      8946112                       # Number of bytes read from this memory
system.ruby.phys_mem.bytes_read::gpu.shader_cores0.inst          192                       # Number of bytes read from this memory
system.ruby.phys_mem.bytes_read::gpu.shader_cores1.data      8951008                       # Number of bytes read from this memory
system.ruby.phys_mem.bytes_read::gpu.shader_cores1.inst          192                       # Number of bytes read from this memory
system.ruby.phys_mem.bytes_read::gpu.shader_cores2.data      8941216                       # Number of bytes read from this memory
system.ruby.phys_mem.bytes_read::gpu.shader_cores2.inst          192                       # Number of bytes read from this memory
system.ruby.phys_mem.bytes_read::gpu.shader_cores3.data      8944960                       # Number of bytes read from this memory
system.ruby.phys_mem.bytes_read::gpu.shader_cores3.inst          208                       # Number of bytes read from this memory
system.ruby.phys_mem.bytes_read::switch_cpus0.inst   2114927744                       # Number of bytes read from this memory
system.ruby.phys_mem.bytes_read::switch_cpus0.data    293812031                       # Number of bytes read from this memory
system.ruby.phys_mem.bytes_read::total     2463136427                       # Number of bytes read from this memory
system.ruby.phys_mem.bytes_inst_read::gpu.shader_cores0.inst          192                       # Number of instructions bytes read from this memory
system.ruby.phys_mem.bytes_inst_read::gpu.shader_cores1.inst          192                       # Number of instructions bytes read from this memory
system.ruby.phys_mem.bytes_inst_read::gpu.shader_cores2.inst          192                       # Number of instructions bytes read from this memory
system.ruby.phys_mem.bytes_inst_read::gpu.shader_cores3.inst          208                       # Number of instructions bytes read from this memory
system.ruby.phys_mem.bytes_inst_read::switch_cpus0.inst   2114927744                       # Number of instructions bytes read from this memory
system.ruby.phys_mem.bytes_inst_read::total   2114928528                       # Number of instructions bytes read from this memory
system.ruby.phys_mem.bytes_written::gpu.ce     18612572                       # Number of bytes written to this memory
system.ruby.phys_mem.bytes_written::gpu.shader_cores0.data      2162688                       # Number of bytes written to this memory
system.ruby.phys_mem.bytes_written::gpu.shader_cores1.data      2164736                       # Number of bytes written to this memory
system.ruby.phys_mem.bytes_written::gpu.shader_cores2.data      2160640                       # Number of bytes written to this memory
system.ruby.phys_mem.bytes_written::gpu.shader_cores3.data      2162816                       # Number of bytes written to this memory
system.ruby.phys_mem.bytes_written::switch_cpus0.data    202940984                       # Number of bytes written to this memory
system.ruby.phys_mem.bytes_written::total    230204436                       # Number of bytes written to this memory
system.ruby.phys_mem.num_reads::gpu.ce         145416                       # Number of read requests responded to by this memory
system.ruby.phys_mem.num_reads::gpu.shader_cores0.data       108083                       # Number of read requests responded to by this memory
system.ruby.phys_mem.num_reads::gpu.shader_cores0.inst           12                       # Number of read requests responded to by this memory
system.ruby.phys_mem.num_reads::gpu.shader_cores1.data       108058                       # Number of read requests responded to by this memory
system.ruby.phys_mem.num_reads::gpu.shader_cores1.inst           12                       # Number of read requests responded to by this memory
system.ruby.phys_mem.num_reads::gpu.shader_cores2.data       108022                       # Number of read requests responded to by this memory
system.ruby.phys_mem.num_reads::gpu.shader_cores2.inst           12                       # Number of read requests responded to by this memory
system.ruby.phys_mem.num_reads::gpu.shader_cores3.data       107970                       # Number of read requests responded to by this memory
system.ruby.phys_mem.num_reads::gpu.shader_cores3.inst           13                       # Number of read requests responded to by this memory
system.ruby.phys_mem.num_reads::switch_cpus0.inst    264365968                       # Number of read requests responded to by this memory
system.ruby.phys_mem.num_reads::switch_cpus0.data     47558603                       # Number of read requests responded to by this memory
system.ruby.phys_mem.num_reads::total       312502169                       # Number of read requests responded to by this memory
system.ruby.phys_mem.num_writes::gpu.ce        145416                       # Number of write requests responded to by this memory
system.ruby.phys_mem.num_writes::gpu.shader_cores0.data        56306                       # Number of write requests responded to by this memory
system.ruby.phys_mem.num_writes::gpu.shader_cores1.data        56418                       # Number of write requests responded to by this memory
system.ruby.phys_mem.num_writes::gpu.shader_cores2.data        56194                       # Number of write requests responded to by this memory
system.ruby.phys_mem.num_writes::gpu.shader_cores3.data        56364                       # Number of write requests responded to by this memory
system.ruby.phys_mem.num_writes::switch_cpus0.data     32754595                       # Number of write requests responded to by this memory
system.ruby.phys_mem.num_writes::total       33125293                       # Number of write requests responded to by this memory
system.ruby.phys_mem.bw_read::gpu.ce         47450031                       # Total read bandwidth from this memory (bytes/s)
system.ruby.phys_mem.bw_read::gpu.shader_cores0.data     22806805                       # Total read bandwidth from this memory (bytes/s)
system.ruby.phys_mem.bw_read::gpu.shader_cores0.inst          489                       # Total read bandwidth from this memory (bytes/s)
system.ruby.phys_mem.bw_read::gpu.shader_cores1.data     22819286                       # Total read bandwidth from this memory (bytes/s)
system.ruby.phys_mem.bw_read::gpu.shader_cores1.inst          489                       # Total read bandwidth from this memory (bytes/s)
system.ruby.phys_mem.bw_read::gpu.shader_cores2.data     22794323                       # Total read bandwidth from this memory (bytes/s)
system.ruby.phys_mem.bw_read::gpu.shader_cores2.inst          489                       # Total read bandwidth from this memory (bytes/s)
system.ruby.phys_mem.bw_read::gpu.shader_cores3.data     22803868                       # Total read bandwidth from this memory (bytes/s)
system.ruby.phys_mem.bw_read::gpu.shader_cores3.inst          530                       # Total read bandwidth from this memory (bytes/s)
system.ruby.phys_mem.bw_read::switch_cpus0.inst   5391699117                       # Total read bandwidth from this memory (bytes/s)
system.ruby.phys_mem.bw_read::switch_cpus0.data    749030823                       # Total read bandwidth from this memory (bytes/s)
system.ruby.phys_mem.bw_read::total        6279406252                       # Total read bandwidth from this memory (bytes/s)
system.ruby.phys_mem.bw_inst_read::gpu.shader_cores0.inst          489                       # Instruction read bandwidth from this memory (bytes/s)
system.ruby.phys_mem.bw_inst_read::gpu.shader_cores1.inst          489                       # Instruction read bandwidth from this memory (bytes/s)
system.ruby.phys_mem.bw_inst_read::gpu.shader_cores2.inst          489                       # Instruction read bandwidth from this memory (bytes/s)
system.ruby.phys_mem.bw_inst_read::gpu.shader_cores3.inst          530                       # Instruction read bandwidth from this memory (bytes/s)
system.ruby.phys_mem.bw_inst_read::switch_cpus0.inst   5391699117                       # Instruction read bandwidth from this memory (bytes/s)
system.ruby.phys_mem.bw_inst_read::total   5391701115                       # Instruction read bandwidth from this memory (bytes/s)
system.ruby.phys_mem.bw_write::gpu.ce        47450031                       # Write bandwidth from this memory (bytes/s)
system.ruby.phys_mem.bw_write::gpu.shader_cores0.data      5513457                       # Write bandwidth from this memory (bytes/s)
system.ruby.phys_mem.bw_write::gpu.shader_cores1.data      5518678                       # Write bandwidth from this memory (bytes/s)
system.ruby.phys_mem.bw_write::gpu.shader_cores2.data      5508236                       # Write bandwidth from this memory (bytes/s)
system.ruby.phys_mem.bw_write::gpu.shader_cores3.data      5513783                       # Write bandwidth from this memory (bytes/s)
system.ruby.phys_mem.bw_write::switch_cpus0.data    517368372                       # Write bandwidth from this memory (bytes/s)
system.ruby.phys_mem.bw_write::total        586872558                       # Write bandwidth from this memory (bytes/s)
system.ruby.phys_mem.bw_total::gpu.ce        94900063                       # Total bandwidth to/from this memory (bytes/s)
system.ruby.phys_mem.bw_total::gpu.shader_cores0.data     28320262                       # Total bandwidth to/from this memory (bytes/s)
system.ruby.phys_mem.bw_total::gpu.shader_cores0.inst          489                       # Total bandwidth to/from this memory (bytes/s)
system.ruby.phys_mem.bw_total::gpu.shader_cores1.data     28337964                       # Total bandwidth to/from this memory (bytes/s)
system.ruby.phys_mem.bw_total::gpu.shader_cores1.inst          489                       # Total bandwidth to/from this memory (bytes/s)
system.ruby.phys_mem.bw_total::gpu.shader_cores2.data     28302559                       # Total bandwidth to/from this memory (bytes/s)
system.ruby.phys_mem.bw_total::gpu.shader_cores2.inst          489                       # Total bandwidth to/from this memory (bytes/s)
system.ruby.phys_mem.bw_total::gpu.shader_cores3.data     28317651                       # Total bandwidth to/from this memory (bytes/s)
system.ruby.phys_mem.bw_total::gpu.shader_cores3.inst          530                       # Total bandwidth to/from this memory (bytes/s)
system.ruby.phys_mem.bw_total::switch_cpus0.inst   5391699117                       # Total bandwidth to/from this memory (bytes/s)
system.ruby.phys_mem.bw_total::switch_cpus0.data   1266399195                       # Total bandwidth to/from this memory (bytes/s)
system.ruby.phys_mem.bw_total::total       6866278809                       # Total bandwidth to/from this memory (bytes/s)
system.cpu_voltage_domain.voltage                   1                       # Voltage in Volts
system.cpu_clk_domain.clock                       500                       # Clock period in ticks
system.cpu0.apic_clk_domain.clock                8000                       # Clock period in ticks
system.cpu0.workload.num_syscalls                 155                       # Number of system calls
system.cpu0.numCycles                               0                       # number of cpu cycles simulated
system.cpu0.numWorkItemsStarted                     0                       # number of work items this cpu started
system.cpu0.numWorkItemsCompleted                   0                       # number of work items this cpu completed
system.cpu0.committedInsts                          0                       # Number of instructions committed
system.cpu0.committedOps                            0                       # Number of ops (including micro ops) committed
system.cpu0.num_int_alu_accesses                    0                       # Number of integer alu accesses
system.cpu0.num_fp_alu_accesses                     0                       # Number of float alu accesses
system.cpu0.num_func_calls                          0                       # number of times a function call or return occured
system.cpu0.num_conditional_control_insts            0                       # number of instructions that are conditional controls
system.cpu0.num_int_insts                           0                       # number of integer instructions
system.cpu0.num_fp_insts                            0                       # number of float instructions
system.cpu0.num_int_register_reads                  0                       # number of times the integer registers were read
system.cpu0.num_int_register_writes                 0                       # number of times the integer registers were written
system.cpu0.num_fp_register_reads                   0                       # number of times the floating registers were read
system.cpu0.num_fp_register_writes                  0                       # number of times the floating registers were written
system.cpu0.num_mem_refs                            0                       # number of memory refs
system.cpu0.num_load_insts                          0                       # Number of load instructions
system.cpu0.num_store_insts                         0                       # Number of store instructions
system.cpu0.num_idle_cycles                         0                       # Number of idle cycles
system.cpu0.num_busy_cycles                         0                       # Number of busy cycles
system.cpu0.not_idle_fraction                       1                       # Percentage of non-idle cycles
system.cpu0.idle_fraction                           0                       # Percentage of idle cycles
system.cpu0.op_class::No_OpClass                    0                       # Class of executed instruction
system.cpu0.op_class::IntAlu                        0                       # Class of executed instruction
system.cpu0.op_class::IntMult                       0                       # Class of executed instruction
system.cpu0.op_class::IntDiv                        0                       # Class of executed instruction
system.cpu0.op_class::FloatAdd                      0                       # Class of executed instruction
system.cpu0.op_class::FloatCmp                      0                       # Class of executed instruction
system.cpu0.op_class::FloatCvt                      0                       # Class of executed instruction
system.cpu0.op_class::FloatMult                     0                       # Class of executed instruction
system.cpu0.op_class::FloatDiv                      0                       # Class of executed instruction
system.cpu0.op_class::FloatSqrt                     0                       # Class of executed instruction
system.cpu0.op_class::SimdAdd                       0                       # Class of executed instruction
system.cpu0.op_class::SimdAddAcc                    0                       # Class of executed instruction
system.cpu0.op_class::SimdAlu                       0                       # Class of executed instruction
system.cpu0.op_class::SimdCmp                       0                       # Class of executed instruction
system.cpu0.op_class::SimdCvt                       0                       # Class of executed instruction
system.cpu0.op_class::SimdMisc                      0                       # Class of executed instruction
system.cpu0.op_class::SimdMult                      0                       # Class of executed instruction
system.cpu0.op_class::SimdMultAcc                   0                       # Class of executed instruction
system.cpu0.op_class::SimdShift                     0                       # Class of executed instruction
system.cpu0.op_class::SimdShiftAcc                  0                       # Class of executed instruction
system.cpu0.op_class::SimdSqrt                      0                       # Class of executed instruction
system.cpu0.op_class::SimdFloatAdd                  0                       # Class of executed instruction
system.cpu0.op_class::SimdFloatAlu                  0                       # Class of executed instruction
system.cpu0.op_class::SimdFloatCmp                  0                       # Class of executed instruction
system.cpu0.op_class::SimdFloatCvt                  0                       # Class of executed instruction
system.cpu0.op_class::SimdFloatDiv                  0                       # Class of executed instruction
system.cpu0.op_class::SimdFloatMisc                 0                       # Class of executed instruction
system.cpu0.op_class::SimdFloatMult                 0                       # Class of executed instruction
system.cpu0.op_class::SimdFloatMultAcc              0                       # Class of executed instruction
system.cpu0.op_class::SimdFloatSqrt                 0                       # Class of executed instruction
system.cpu0.op_class::MemRead                       0                       # Class of executed instruction
system.cpu0.op_class::MemWrite                      0                       # Class of executed instruction
system.cpu0.op_class::IprAccess                     0                       # Class of executed instruction
system.cpu0.op_class::InstPrefetch                  0                       # Class of executed instruction
system.cpu0.op_class::total                         0                       # Class of executed instruction
system.cpu1.apic_clk_domain.clock                8000                       # Clock period in ticks
system.cpu1.numCycles                               0                       # number of cpu cycles simulated
system.cpu1.numWorkItemsStarted                     0                       # number of work items this cpu started
system.cpu1.numWorkItemsCompleted                   0                       # number of work items this cpu completed
system.cpu1.committedInsts                          0                       # Number of instructions committed
system.cpu1.committedOps                            0                       # Number of ops (including micro ops) committed
system.cpu1.num_int_alu_accesses                    0                       # Number of integer alu accesses
system.cpu1.num_fp_alu_accesses                     0                       # Number of float alu accesses
system.cpu1.num_func_calls                          0                       # number of times a function call or return occured
system.cpu1.num_conditional_control_insts            0                       # number of instructions that are conditional controls
system.cpu1.num_int_insts                           0                       # number of integer instructions
system.cpu1.num_fp_insts                            0                       # number of float instructions
system.cpu1.num_int_register_reads                  0                       # number of times the integer registers were read
system.cpu1.num_int_register_writes                 0                       # number of times the integer registers were written
system.cpu1.num_fp_register_reads                   0                       # number of times the floating registers were read
system.cpu1.num_fp_register_writes                  0                       # number of times the floating registers were written
system.cpu1.num_mem_refs                            0                       # number of memory refs
system.cpu1.num_load_insts                          0                       # Number of load instructions
system.cpu1.num_store_insts                         0                       # Number of store instructions
system.cpu1.num_idle_cycles                         0                       # Number of idle cycles
system.cpu1.num_busy_cycles                         0                       # Number of busy cycles
system.cpu1.not_idle_fraction                       0                       # Percentage of non-idle cycles
system.cpu1.idle_fraction                           1                       # Percentage of idle cycles
system.cpu1.op_class::No_OpClass                    0                       # Class of executed instruction
system.cpu1.op_class::IntAlu                        0                       # Class of executed instruction
system.cpu1.op_class::IntMult                       0                       # Class of executed instruction
system.cpu1.op_class::IntDiv                        0                       # Class of executed instruction
system.cpu1.op_class::FloatAdd                      0                       # Class of executed instruction
system.cpu1.op_class::FloatCmp                      0                       # Class of executed instruction
system.cpu1.op_class::FloatCvt                      0                       # Class of executed instruction
system.cpu1.op_class::FloatMult                     0                       # Class of executed instruction
system.cpu1.op_class::FloatDiv                      0                       # Class of executed instruction
system.cpu1.op_class::FloatSqrt                     0                       # Class of executed instruction
system.cpu1.op_class::SimdAdd                       0                       # Class of executed instruction
system.cpu1.op_class::SimdAddAcc                    0                       # Class of executed instruction
system.cpu1.op_class::SimdAlu                       0                       # Class of executed instruction
system.cpu1.op_class::SimdCmp                       0                       # Class of executed instruction
system.cpu1.op_class::SimdCvt                       0                       # Class of executed instruction
system.cpu1.op_class::SimdMisc                      0                       # Class of executed instruction
system.cpu1.op_class::SimdMult                      0                       # Class of executed instruction
system.cpu1.op_class::SimdMultAcc                   0                       # Class of executed instruction
system.cpu1.op_class::SimdShift                     0                       # Class of executed instruction
system.cpu1.op_class::SimdShiftAcc                  0                       # Class of executed instruction
system.cpu1.op_class::SimdSqrt                      0                       # Class of executed instruction
system.cpu1.op_class::SimdFloatAdd                  0                       # Class of executed instruction
system.cpu1.op_class::SimdFloatAlu                  0                       # Class of executed instruction
system.cpu1.op_class::SimdFloatCmp                  0                       # Class of executed instruction
system.cpu1.op_class::SimdFloatCvt                  0                       # Class of executed instruction
system.cpu1.op_class::SimdFloatDiv                  0                       # Class of executed instruction
system.cpu1.op_class::SimdFloatMisc                 0                       # Class of executed instruction
system.cpu1.op_class::SimdFloatMult                 0                       # Class of executed instruction
system.cpu1.op_class::SimdFloatMultAcc              0                       # Class of executed instruction
system.cpu1.op_class::SimdFloatSqrt                 0                       # Class of executed instruction
system.cpu1.op_class::MemRead                       0                       # Class of executed instruction
system.cpu1.op_class::MemWrite                      0                       # Class of executed instruction
system.cpu1.op_class::IprAccess                     0                       # Class of executed instruction
system.cpu1.op_class::InstPrefetch                  0                       # Class of executed instruction
system.cpu1.op_class::total                         0                       # Class of executed instruction
system.gpu.clk_domain.voltage_domain.voltage            1                       # Voltage in Volts
system.gpu.clk_domain.clock                      1429                       # Clock period in ticks
system.gpu.dram_wrapper.clk_domain.clock          541                       # Clock period in ticks
system.gpu.icnt_wrapper.clk_domain.clock         2858                       # Clock period in ticks
system.ruby.delayHist::bucket_size                256                       # delay histogram for all message
system.ruby.delayHist::max_bucket                2559                       # delay histogram for all message
system.ruby.delayHist::samples                7406831                       # delay histogram for all message
system.ruby.delayHist::mean                  4.872375                       # delay histogram for all message
system.ruby.delayHist::stdev                39.114125                       # delay histogram for all message
system.ruby.delayHist                    |     7386640     99.73%     99.73% |        9481      0.13%     99.86% |        5177      0.07%     99.93% |        2909      0.04%     99.96% |        1482      0.02%     99.98% |         645      0.01%     99.99% |         276      0.00%    100.00% |         161      0.00%    100.00% |          50      0.00%    100.00% |          10      0.00%    100.00% # delay histogram for all message
system.ruby.delayHist::total                  7406831                       # delay histogram for all message
system.ruby.outstanding_req_hist::bucket_size            8                      
system.ruby.outstanding_req_hist::max_bucket           79                      
system.ruby.outstanding_req_hist::samples    345627463                      
system.ruby.outstanding_req_hist::mean       1.083940                      
system.ruby.outstanding_req_hist::gmean      1.007896                      
system.ruby.outstanding_req_hist::stdev      2.042868                      
system.ruby.outstanding_req_hist         |   344892237     99.79%     99.79% |      108845      0.03%     99.82% |      123894      0.04%     99.85% |       96737      0.03%     99.88% |       75480      0.02%     99.90% |       38956      0.01%     99.92% |         922      0.00%     99.92% |          86      0.00%     99.92% |      290306      0.08%    100.00% |           0      0.00%    100.00%
system.ruby.outstanding_req_hist::total     345627463                      
system.ruby.latency_hist::bucket_size            2048                      
system.ruby.latency_hist::max_bucket            20479                      
system.ruby.latency_hist::samples           345627462                      
system.ruby.latency_hist::mean               4.787131                      
system.ruby.latency_hist::gmean              1.020268                      
system.ruby.latency_hist::stdev            128.590878                      
system.ruby.latency_hist                 |   345358293     99.92%     99.92% |      136832      0.04%     99.96% |       90729      0.03%     99.99% |       38804      0.01%    100.00% |        2800      0.00%    100.00% |           4      0.00%    100.00% |           0      0.00%    100.00% |           0      0.00%    100.00% |           0      0.00%    100.00% |           0      0.00%    100.00%
system.ruby.latency_hist::total             345627462                      
system.ruby.hit_latency_hist::bucket_size            1                      
system.ruby.hit_latency_hist::max_bucket            9                      
system.ruby.hit_latency_hist::samples       344171986                      
system.ruby.hit_latency_hist::mean                  1                      
system.ruby.hit_latency_hist::gmean                 1                      
system.ruby.hit_latency_hist             |           0      0.00%      0.00% |   344171986    100.00%    100.00% |           0      0.00%    100.00% |           0      0.00%    100.00% |           0      0.00%    100.00% |           0      0.00%    100.00% |           0      0.00%    100.00% |           0      0.00%    100.00% |           0      0.00%    100.00% |           0      0.00%    100.00%
system.ruby.hit_latency_hist::total         344171986                      
system.ruby.miss_latency_hist::bucket_size         2048                      
system.ruby.miss_latency_hist::max_bucket        20479                      
system.ruby.miss_latency_hist::samples        1455476                      
system.ruby.miss_latency_hist::mean        900.318511                      
system.ruby.miss_latency_hist::gmean       117.310644                      
system.ruby.miss_latency_hist::stdev      1766.719043                      
system.ruby.miss_latency_hist            |     1186307     81.51%     81.51% |      136832      9.40%     90.91% |       90729      6.23%     97.14% |       38804      2.67%     99.81% |        2800      0.19%    100.00% |           4      0.00%    100.00% |           0      0.00%    100.00% |           0      0.00%    100.00% |           0      0.00%    100.00% |           0      0.00%    100.00%
system.ruby.miss_latency_hist::total          1455476                      
system.gpu.shader_mmu.numPagefaults                 0                       # Number of Pagefaults
system.gpu.shader_mmu.numPagewalks              45816                       # Number of Pagewalks
system.gpu.shader_mmu.totalRequests             45816                       # Total number of requests
system.gpu.shader_mmu.l2hits                        0                       # Hits in the shared L2
system.gpu.shader_mmu.prefetchHits                  0                       # Number of prefetch hits
system.gpu.shader_mmu.numPrefetches                 0                       # Number of prefetchs
system.gpu.shader_mmu.prefetchFaults                0                       # Number of faults caused by prefetches
system.gpu.shader_mmu.pagefaultLatency::samples            0                       # Latency to complete the pagefault
system.gpu.shader_mmu.pagefaultLatency::mean          nan                       # Latency to complete the pagefault
system.gpu.shader_mmu.pagefaultLatency::gmean          nan                       # Latency to complete the pagefault
system.gpu.shader_mmu.pagefaultLatency::stdev          nan                       # Latency to complete the pagefault
system.gpu.shader_mmu.pagefaultLatency::0            0                       # Latency to complete the pagefault
system.gpu.shader_mmu.pagefaultLatency::1            0                       # Latency to complete the pagefault
system.gpu.shader_mmu.pagefaultLatency::2            0                       # Latency to complete the pagefault
system.gpu.shader_mmu.pagefaultLatency::3            0                       # Latency to complete the pagefault
system.gpu.shader_mmu.pagefaultLatency::4            0                       # Latency to complete the pagefault
system.gpu.shader_mmu.pagefaultLatency::5            0                       # Latency to complete the pagefault
system.gpu.shader_mmu.pagefaultLatency::6            0                       # Latency to complete the pagefault
system.gpu.shader_mmu.pagefaultLatency::7            0                       # Latency to complete the pagefault
system.gpu.shader_mmu.pagefaultLatency::8            0                       # Latency to complete the pagefault
system.gpu.shader_mmu.pagefaultLatency::9            0                       # Latency to complete the pagefault
system.gpu.shader_mmu.pagefaultLatency::10            0                       # Latency to complete the pagefault
system.gpu.shader_mmu.pagefaultLatency::11            0                       # Latency to complete the pagefault
system.gpu.shader_mmu.pagefaultLatency::12            0                       # Latency to complete the pagefault
system.gpu.shader_mmu.pagefaultLatency::13            0                       # Latency to complete the pagefault
system.gpu.shader_mmu.pagefaultLatency::14            0                       # Latency to complete the pagefault
system.gpu.shader_mmu.pagefaultLatency::15            0                       # Latency to complete the pagefault
system.gpu.shader_mmu.pagefaultLatency::16            0                       # Latency to complete the pagefault
system.gpu.shader_mmu.pagefaultLatency::17            0                       # Latency to complete the pagefault
system.gpu.shader_mmu.pagefaultLatency::18            0                       # Latency to complete the pagefault
system.gpu.shader_mmu.pagefaultLatency::19            0                       # Latency to complete the pagefault
system.gpu.shader_mmu.pagefaultLatency::20            0                       # Latency to complete the pagefault
system.gpu.shader_mmu.pagefaultLatency::21            0                       # Latency to complete the pagefault
system.gpu.shader_mmu.pagefaultLatency::22            0                       # Latency to complete the pagefault
system.gpu.shader_mmu.pagefaultLatency::23            0                       # Latency to complete the pagefault
system.gpu.shader_mmu.pagefaultLatency::24            0                       # Latency to complete the pagefault
system.gpu.shader_mmu.pagefaultLatency::25            0                       # Latency to complete the pagefault
system.gpu.shader_mmu.pagefaultLatency::26            0                       # Latency to complete the pagefault
system.gpu.shader_mmu.pagefaultLatency::27            0                       # Latency to complete the pagefault
system.gpu.shader_mmu.pagefaultLatency::28            0                       # Latency to complete the pagefault
system.gpu.shader_mmu.pagefaultLatency::29            0                       # Latency to complete the pagefault
system.gpu.shader_mmu.pagefaultLatency::30            0                       # Latency to complete the pagefault
system.gpu.shader_mmu.pagefaultLatency::31            0                       # Latency to complete the pagefault
system.gpu.shader_mmu.pagefaultLatency::total            0                       # Latency to complete the pagefault
system.gpu.shader_mmu.concurrentWalks::samples        45816                       # Number of outstanding walks
system.gpu.shader_mmu.concurrentWalks::mean            0                       # Number of outstanding walks
system.gpu.shader_mmu.concurrentWalks::gmean            0                       # Number of outstanding walks
system.gpu.shader_mmu.concurrentWalks::stdev            0                       # Number of outstanding walks
system.gpu.shader_mmu.concurrentWalks::0        45816    100.00%    100.00% # Number of outstanding walks
system.gpu.shader_mmu.concurrentWalks::1            0      0.00%    100.00% # Number of outstanding walks
system.gpu.shader_mmu.concurrentWalks::2            0      0.00%    100.00% # Number of outstanding walks
system.gpu.shader_mmu.concurrentWalks::3            0      0.00%    100.00% # Number of outstanding walks
system.gpu.shader_mmu.concurrentWalks::4            0      0.00%    100.00% # Number of outstanding walks
system.gpu.shader_mmu.concurrentWalks::5            0      0.00%    100.00% # Number of outstanding walks
system.gpu.shader_mmu.concurrentWalks::6            0      0.00%    100.00% # Number of outstanding walks
system.gpu.shader_mmu.concurrentWalks::7            0      0.00%    100.00% # Number of outstanding walks
system.gpu.shader_mmu.concurrentWalks::8            0      0.00%    100.00% # Number of outstanding walks
system.gpu.shader_mmu.concurrentWalks::9            0      0.00%    100.00% # Number of outstanding walks
system.gpu.shader_mmu.concurrentWalks::10            0      0.00%    100.00% # Number of outstanding walks
system.gpu.shader_mmu.concurrentWalks::11            0      0.00%    100.00% # Number of outstanding walks
system.gpu.shader_mmu.concurrentWalks::12            0      0.00%    100.00% # Number of outstanding walks
system.gpu.shader_mmu.concurrentWalks::13            0      0.00%    100.00% # Number of outstanding walks
system.gpu.shader_mmu.concurrentWalks::14            0      0.00%    100.00% # Number of outstanding walks
system.gpu.shader_mmu.concurrentWalks::15            0      0.00%    100.00% # Number of outstanding walks
system.gpu.shader_mmu.concurrentWalks::total        45816                       # Number of outstanding walks
system.gpu.shader_mmu.pagewalkLatency::samples        45816                       # Latency to complete the pagewalk
system.gpu.shader_mmu.pagewalkLatency::mean            0                       # Latency to complete the pagewalk
system.gpu.shader_mmu.pagewalkLatency::gmean            0                       # Latency to complete the pagewalk
system.gpu.shader_mmu.pagewalkLatency::stdev            0                       # Latency to complete the pagewalk
system.gpu.shader_mmu.pagewalkLatency::0        45816    100.00%    100.00% # Latency to complete the pagewalk
system.gpu.shader_mmu.pagewalkLatency::1            0      0.00%    100.00% # Latency to complete the pagewalk
system.gpu.shader_mmu.pagewalkLatency::2            0      0.00%    100.00% # Latency to complete the pagewalk
system.gpu.shader_mmu.pagewalkLatency::3            0      0.00%    100.00% # Latency to complete the pagewalk
system.gpu.shader_mmu.pagewalkLatency::4            0      0.00%    100.00% # Latency to complete the pagewalk
system.gpu.shader_mmu.pagewalkLatency::5            0      0.00%    100.00% # Latency to complete the pagewalk
system.gpu.shader_mmu.pagewalkLatency::6            0      0.00%    100.00% # Latency to complete the pagewalk
system.gpu.shader_mmu.pagewalkLatency::7            0      0.00%    100.00% # Latency to complete the pagewalk
system.gpu.shader_mmu.pagewalkLatency::8            0      0.00%    100.00% # Latency to complete the pagewalk
system.gpu.shader_mmu.pagewalkLatency::9            0      0.00%    100.00% # Latency to complete the pagewalk
system.gpu.shader_mmu.pagewalkLatency::10            0      0.00%    100.00% # Latency to complete the pagewalk
system.gpu.shader_mmu.pagewalkLatency::11            0      0.00%    100.00% # Latency to complete the pagewalk
system.gpu.shader_mmu.pagewalkLatency::12            0      0.00%    100.00% # Latency to complete the pagewalk
system.gpu.shader_mmu.pagewalkLatency::13            0      0.00%    100.00% # Latency to complete the pagewalk
system.gpu.shader_mmu.pagewalkLatency::14            0      0.00%    100.00% # Latency to complete the pagewalk
system.gpu.shader_mmu.pagewalkLatency::15            0      0.00%    100.00% # Latency to complete the pagewalk
system.gpu.shader_mmu.pagewalkLatency::16            0      0.00%    100.00% # Latency to complete the pagewalk
system.gpu.shader_mmu.pagewalkLatency::17            0      0.00%    100.00% # Latency to complete the pagewalk
system.gpu.shader_mmu.pagewalkLatency::18            0      0.00%    100.00% # Latency to complete the pagewalk
system.gpu.shader_mmu.pagewalkLatency::19            0      0.00%    100.00% # Latency to complete the pagewalk
system.gpu.shader_mmu.pagewalkLatency::20            0      0.00%    100.00% # Latency to complete the pagewalk
system.gpu.shader_mmu.pagewalkLatency::21            0      0.00%    100.00% # Latency to complete the pagewalk
system.gpu.shader_mmu.pagewalkLatency::22            0      0.00%    100.00% # Latency to complete the pagewalk
system.gpu.shader_mmu.pagewalkLatency::23            0      0.00%    100.00% # Latency to complete the pagewalk
system.gpu.shader_mmu.pagewalkLatency::24            0      0.00%    100.00% # Latency to complete the pagewalk
system.gpu.shader_mmu.pagewalkLatency::25            0      0.00%    100.00% # Latency to complete the pagewalk
system.gpu.shader_mmu.pagewalkLatency::26            0      0.00%    100.00% # Latency to complete the pagewalk
system.gpu.shader_mmu.pagewalkLatency::27            0      0.00%    100.00% # Latency to complete the pagewalk
system.gpu.shader_mmu.pagewalkLatency::28            0      0.00%    100.00% # Latency to complete the pagewalk
system.gpu.shader_mmu.pagewalkLatency::29            0      0.00%    100.00% # Latency to complete the pagewalk
system.gpu.shader_mmu.pagewalkLatency::30            0      0.00%    100.00% # Latency to complete the pagewalk
system.gpu.shader_mmu.pagewalkLatency::31            0      0.00%    100.00% # Latency to complete the pagewalk
system.gpu.shader_mmu.pagewalkLatency::total        45816                       # Latency to complete the pagewalk
system.gpu.kernels_started                          2                       # Number of kernels started
system.gpu.kernels_completed                        2                       # Number of kernels completed
system.gpu.ce.device_dtb.hits                       0                       # Number of hits in this TLB
system.gpu.ce.device_dtb.misses                     0                       # Number of misses in this TLB
system.gpu.ce.device_dtb.hitRate                  nan                       # Hit rate for this TLB
system.gpu.ce.host_dtb.hits                     99601                       # Number of hits in this TLB
system.gpu.ce.host_dtb.misses                   45816                       # Number of misses in this TLB
system.gpu.ce.host_dtb.hitRate               0.684934                       # Hit rate for this TLB
system.gpu.ce.numOperations                         8                       # Number of copy/memset operations
system.gpu.ce.opBytesRead                    18612572                       # Number of copy bytes read
system.gpu.ce.opBytesWritten                 18612572                       # Number of copy/memset bytes written
system.gpu.ce.opTimeTicks                  6292242072                       # Total time spent in copy/memset operations
system.gpu.shader_cores0.itb.hits                   0                       # Number of hits in this TLB
system.gpu.shader_cores0.itb.misses                 0                       # Number of misses in this TLB
system.gpu.shader_cores0.itb.hitRate              nan                       # Hit rate for this TLB
system.gpu.shader_cores0.local_loads                0                       # Number of loads from local space
system.gpu.shader_cores0.local_stores               0                       # Number of stores to local space
system.gpu.shader_cores0.shared_loads         1032192                       # Number of loads from shared space
system.gpu.shader_cores0.shared_stores         786432                       # Number of stores to shared space
system.gpu.shader_cores0.param_kernel_loads      1867776                       # Number of loads from kernel parameter space
system.gpu.shader_cores0.param_local_loads            0                       # Number of loads from local parameter space
system.gpu.shader_cores0.param_local_stores            0                       # Number of stores to local parameter space
system.gpu.shader_cores0.const_loads                0                       # Number of loads from constant space
system.gpu.shader_cores0.tex_loads                  0                       # Number of loads from texture space
system.gpu.shader_cores0.global_loads         2113536                       # Number of loads from global space
system.gpu.shader_cores0.global_stores         540672                       # Number of stores to global space
system.gpu.shader_cores0.surf_loads                 0                       # Number of loads from surface space
system.gpu.shader_cores0.generic_loads              0                       # Number of loads from generic spaces (global, shared, local)
system.gpu.shader_cores0.generic_stores             0                       # Number of stores to generic spaces (global, shared, local)
system.gpu.shader_cores0.inst_cache_requests           12                       # Number of instruction cache requests sent
system.gpu.shader_cores0.inst_cache_retries            0                       # Number of instruction cache retries
system.gpu.shader_cores0.inst_counts::0             0                       # Inst counts: 1: ALU, 2: MAD, 3: CTRL, 4: SFU, 5: MEM, 6: TEX, 7: NOP
system.gpu.shader_cores0.inst_counts::1      33325056                       # Inst counts: 1: ALU, 2: MAD, 3: CTRL, 4: SFU, 5: MEM, 6: TEX, 7: NOP
system.gpu.shader_cores0.inst_counts::2        524288                       # Inst counts: 1: ALU, 2: MAD, 3: CTRL, 4: SFU, 5: MEM, 6: TEX, 7: NOP
system.gpu.shader_cores0.inst_counts::3       4964352                       # Inst counts: 1: ALU, 2: MAD, 3: CTRL, 4: SFU, 5: MEM, 6: TEX, 7: NOP
system.gpu.shader_cores0.inst_counts::4       1572864                       # Inst counts: 1: ALU, 2: MAD, 3: CTRL, 4: SFU, 5: MEM, 6: TEX, 7: NOP
system.gpu.shader_cores0.inst_counts::5       6340608                       # Inst counts: 1: ALU, 2: MAD, 3: CTRL, 4: SFU, 5: MEM, 6: TEX, 7: NOP
system.gpu.shader_cores0.inst_counts::6             0                       # Inst counts: 1: ALU, 2: MAD, 3: CTRL, 4: SFU, 5: MEM, 6: TEX, 7: NOP
system.gpu.shader_cores0.inst_counts::7             0                       # Inst counts: 1: ALU, 2: MAD, 3: CTRL, 4: SFU, 5: MEM, 6: TEX, 7: NOP
system.gpu.shader_cores0.activeCycles         2282873                       # Number of cycles this shader was executing a CTA
system.gpu.shader_cores0.notStalledCycles      1173438                       # Number of cycles this shader was actually executing at least one instance
[...]
system.ruby.L1Cache_Controller.NP.Store::total       461033                      
system.ruby.L1Cache_Controller.NP.Inv    |         117      1.32%      1.32% |           0      0.00%      1.32% |        2217     25.00%     26.32% |        2178     24.56%     50.89% |        2163     24.39%     75.28% |        2178     24.56%     99.84% |           0      0.00%     99.84% |          14      0.16%    100.00%
system.ruby.L1Cache_Controller.NP.Inv::total         8867                      
system.ruby.L1Cache_Controller.I.Load    |         971     45.87%     45.87% |           0      0.00%     45.87% |         289     13.65%     59.52% |         293     13.84%     73.36% |         276     13.04%     86.40% |         288     13.60%    100.00% |           0      0.00%    100.00% |           0      0.00%    100.00%
system.ruby.L1Cache_Controller.I.Load::total         2117                      
system.ruby.L1Cache_Controller.I.Ifetch  |        3617    100.00%    100.00% |           0      0.00%    100.00% |           0      0.00%    100.00% |           0      0.00%    100.00% |           0      0.00%    100.00% |           0      0.00%    100.00% |           0      0.00%    100.00% |           0      0.00%    100.00%
system.ruby.L1Cache_Controller.I.Ifetch::total         3617                      
system.ruby.L1Cache_Controller.I.Store   |         332      4.96%      4.96% |           0      0.00%      4.96% |        1580     23.58%     28.54% |        1687     25.18%     53.72% |        1523     22.73%     76.45% |        1578     23.55%    100.00% |           0      0.00%    100.00% |           0      0.00%    100.00%
system.ruby.L1Cache_Controller.I.Store::total         6700                      
system.ruby.L1Cache_Controller.I.L1_Replacement |         691      0.94%      0.94% |           0      0.00%      0.94% |       18156     24.65%     25.59% |       18300     24.85%     50.44% |       18298     24.84%     75.28% |       18192     24.70%     99.98% |           0      0.00%     99.98% |          16      0.02%    100.00%
system.ruby.L1Cache_Controller.I.L1_Replacement::total        73653                      
system.ruby.L1Cache_Controller.S.Load    |          81      0.05%      0.05% |           0      0.00%      0.05% |       39289     25.04%     25.09% |       39306     25.05%     50.14% |       38928     24.81%     74.95% |       39306     25.05%    100.00% |           0      0.00%    100.00% |           0      0.00%    100.00%
system.ruby.L1Cache_Controller.S.Load::total       156910                      
system.ruby.L1Cache_Controller.S.Ifetch  |   263900507    100.00%    100.00% |           0      0.00%    100.00% |           0      0.00%    100.00% |           0      0.00%    100.00% |           0      0.00%    100.00% |           0      0.00%    100.00% |           0      0.00%    100.00% |           0      0.00%    100.00%
system.ruby.L1Cache_Controller.S.Ifetch::total    263900507                      
system.ruby.L1Cache_Controller.S.Store   |           0      0.00%      0.00% |           0      0.00%      0.00% |        2128     25.16%     25.16% |        2021     23.89%     49.05% |        2158     25.51%     74.57% |        2151     25.43%    100.00% |           0      0.00%    100.00% |           0      0.00%    100.00%
system.ruby.L1Cache_Controller.S.Store::total         8458                      
system.ruby.L1Cache_Controller.S.Inv     |        3949     18.13%     18.13% |           0      0.00%     18.13% |        4452     20.44%     38.58% |        4492     20.63%     59.20% |        4442     20.40%     79.60% |        4432     20.35%     99.95% |           0      0.00%     99.95% |          11      0.05%    100.00%
system.ruby.L1Cache_Controller.S.Inv::total        21778                      
system.ruby.L1Cache_Controller.S.L1_Replacement |      461728     98.14%     98.14% |           0      0.00%     98.14% |        2218      0.47%     98.61% |        2178      0.46%     99.07% |        2163      0.46%     99.53% |        2180      0.46%    100.00% |           0      0.00%    100.00% |          14      0.00%    100.00%
system.ruby.L1Cache_Controller.S.L1_Replacement::total       470481                      
system.ruby.L1Cache_Controller.E.Load    |    10588975     98.68%     98.68% |           0      0.00%     98.68% |       35386      0.33%     99.01% |       35369      0.33%     99.34% |       35717      0.33%     99.67% |       35176      0.33%    100.00% |           0      0.00%    100.00% |           0      0.00%    100.00%
system.ruby.L1Cache_Controller.E.Load::total     10730623                      
system.ruby.L1Cache_Controller.E.Store   |        2373      3.66%      3.66% |           0      0.00%      3.66% |       15618     24.08%     27.73% |       15697     24.20%     51.93% |       15533     23.95%     75.88% |       15647     24.12%    100.00% |           0      0.00%    100.00% |           0      0.00%    100.00%
system.ruby.L1Cache_Controller.E.Store::total        64868                      
system.ruby.L1Cache_Controller.E.Inv     |         933      5.81%      5.81% |           0      0.00%      5.81% |        3679     22.89%     28.70% |        3864     24.04%     52.74% |        3799     23.64%     76.38% |        3795     23.62%    100.00% |           0      0.00%    100.00% |           0      0.00%    100.00%
system.ruby.L1Cache_Controller.E.Inv::total        16070                      
system.ruby.L1Cache_Controller.E.L1_Replacement |      237254     59.53%     59.53% |           0      0.00%     59.53% |        4042      1.01%     60.54% |        3895      0.98%     61.52% |        3963      0.99%     62.52% |        3980      1.00%     63.51% |           0      0.00%     63.51% |      145414     36.49%    100.00%
system.ruby.L1Cache_Controller.E.L1_Replacement::total       398548                      
system.ruby.L1Cache_Controller.E.Fwd_GETS |           1      0.02%      0.02% |           0      0.00%      0.02% |        1422     24.57%     24.59% |        1461     25.24%     49.83% |        1461     25.24%     75.07% |        1443     24.93%    100.00% |           0      0.00%    100.00% |           0      0.00%    100.00%
system.ruby.L1Cache_Controller.E.Fwd_GETS::total         5788                      
system.ruby.L1Cache_Controller.M.Load    |    33593708     99.98%     99.98% |           0      0.00%     99.98% |        1544      0.00%     99.99% |        1474      0.00%     99.99% |        1582      0.00%    100.00% |        1549      0.00%    100.00% |           0      0.00%    100.00% |           0      0.00%    100.00%
system.ruby.L1Cache_Controller.M.Load::total     33599857                      
system.ruby.L1Cache_Controller.M.Store   |    35575255     99.60%     99.60% |           0      0.00%     99.60% |       35975      0.10%     99.70% |       36012      0.10%     99.80% |       35987      0.10%     99.90% |       35992      0.10%    100.00% |           0      0.00%    100.00% |           0      0.00%    100.00%
system.ruby.L1Cache_Controller.M.Store::total     35719221                      
system.ruby.L1Cache_Controller.M.Inv     |         880      2.10%      2.10% |           0      0.00%      2.10% |       10249     24.50%     26.60% |       10376     24.80%     51.41% |       10145     24.25%     75.66% |       10169     24.31%     99.97% |           0      0.00%     99.97% |          13      0.03%    100.00%
system.ruby.L1Cache_Controller.M.Inv::total        41832                      
system.ruby.L1Cache_Controller.M.L1_Replacement |      313656     64.04%     64.04% |           0      0.00%     64.04% |        7652      1.56%     65.60% |        7732      1.58%     67.18% |        7576      1.55%     68.73% |        7783      1.59%     70.32% |           0      0.00%     70.32% |      145380     29.68%    100.00%
system.ruby.L1Cache_Controller.M.L1_Replacement::total       489779                      
system.ruby.L1Cache_Controller.M.Fwd_GETX |           1      0.01%      0.01% |           0      0.00%      0.01% |        2169     25.03%     25.05% |        2072     23.92%     48.96% |        2235     25.80%     74.76% |        2187     25.24%    100.00% |           0      0.00%    100.00% |           0      0.00%    100.00%
system.ruby.L1Cache_Controller.M.Fwd_GETX::total         8664                      
system.ruby.L1Cache_Controller.M.Fwd_GETS |           2      0.20%      0.20% |           0      0.00%      0.20% |         261     26.20%     26.41% |         226     22.69%     49.10% |         251     25.20%     74.30% |         233     23.39%     97.69% |           0      0.00%     97.69% |          23      2.31%    100.00%
system.ruby.L1Cache_Controller.M.Fwd_GETS::total          996                      
system.ruby.L1Cache_Controller.IS.L1_Replacement |           0      0.00%      0.00% |           0      0.00%      0.00% |           0      0.00%      0.00% |           0      0.00%      0.00% |           1      0.00%      0.00% |           0      0.00%      0.00% |           0      0.00%      0.00% |     1895495    100.00%    100.00%
system.ruby.L1Cache_Controller.IS.L1_Replacement::total      1895496                      
system.ruby.L1Cache_Controller.IS.Data_Exclusive |      240774     49.59%     49.59% |           0      0.00%     49.59% |       24761      5.10%     54.69% |       24917      5.13%     59.83% |       24756      5.10%     64.93% |       24865      5.12%     70.05% |           0      0.00%     70.05% |      145414     29.95%    100.00%
system.ruby.L1Cache_Controller.IS.Data_Exclusive::total       485487                      
system.ruby.L1Cache_Controller.IS.DataS_fromL1 |           8      0.12%      0.12% |           0      0.00%      0.12% |        1700     25.06%     25.18% |        1673     24.66%     49.84% |        1703     25.10%     74.94% |        1698     25.03%     99.97% |           0      0.00%     99.97% |           2      0.03%    100.00%
system.ruby.L1Cache_Controller.IS.DataS_fromL1::total         6784                      
system.ruby.L1Cache_Controller.IS.Data_all_Acks |      465531     95.59%     95.59% |           0      0.00%     95.59% |        5415      1.11%     96.70% |        5331      1.09%     97.80% |        5348      1.10%     98.89% |        5389      1.11%    100.00% |           0      0.00%    100.00% |           0      0.00%    100.00%
system.ruby.L1Cache_Controller.IS.Data_all_Acks::total       487014                      
system.ruby.L1Cache_Controller.IM.L1_Replacement |           0      0.00%      0.00% |           0      0.00%      0.00% |           0      0.00%      0.00% |           0      0.00%      0.00% |           0      0.00%      0.00% |           0      0.00%      0.00% |           0      0.00%      0.00% |     2036796    100.00%    100.00%
system.ruby.L1Cache_Controller.IM.L1_Replacement::total      2036796                      
system.ruby.L1Cache_Controller.IM.Data   |           0      0.00%      0.00% |           0      0.00%      0.00% |           1    100.00%    100.00% |           0      0.00%    100.00% |           0      0.00%    100.00% |           0      0.00%    100.00% |           0      0.00%    100.00% |           0      0.00%    100.00%
system.ruby.L1Cache_Controller.IM.Data::total            1                      
system.ruby.L1Cache_Controller.IM.Data_all_Acks |      311954     66.64%     66.64% |           0      0.00%     66.64% |        2647      0.57%     67.21% |        2785      0.59%     67.80% |        2605      0.56%     68.36% |        2685      0.57%     68.93% |           0      0.00%     68.93% |      145416     31.07%    100.00%
system.ruby.L1Cache_Controller.IM.Data_all_Acks::total       468092                      
system.ruby.L1Cache_Controller.SM.Inv    |           0      0.00%      0.00% |           0      0.00%      0.00% |          63     17.50%     17.50% |          97     26.94%     44.44% |          89     24.72%     69.17% |         111     30.83%    100.00% |           0      0.00%    100.00% |           0      0.00%    100.00%
system.ruby.L1Cache_Controller.SM.Inv::total          360                      
system.ruby.L1Cache_Controller.SM.Ack    |           0      0.00%      0.00% |           0      0.00%      0.00% |        2065     25.50%     25.50% |        1924     23.76%     49.26% |        2069     25.55%     74.81% |        2040     25.19%    100.00% |           0      0.00%    100.00% |           0      0.00%    100.00%
system.ruby.L1Cache_Controller.SM.Ack::total         8098                      
system.ruby.L1Cache_Controller.SM.Ack_all |           0      0.00%      0.00% |           0      0.00%      0.00% |        2066     25.51%     25.51% |        1924     23.76%     49.27% |        2069     25.55%     74.81% |        2040     25.19%    100.00% |           0      0.00%    100.00% |           0      0.00%    100.00%
system.ruby.L1Cache_Controller.SM.Ack_all::total         8099                      
system.ruby.L1Cache_Controller.M_I.Inv   |           0      0.00%      0.00% |           0      0.00%      0.00% |          31     22.63%     22.63% |          33     24.09%     46.72% |          35     25.55%     72.26% |          38     27.74%    100.00% |           0      0.00%    100.00% |           0      0.00%    100.00%
system.ruby.L1Cache_Controller.M_I.Inv::total          137                      
system.ruby.L1Cache_Controller.M_I.WB_Ack |      550910     62.03%     62.03% |           0      0.00%     62.03% |       11663      1.31%     63.34% |       11594      1.31%     64.64% |       11504      1.30%     65.94% |       11725      1.32%     67.26% |           0      0.00%     67.26% |      290794     32.74%    100.00%
system.ruby.L1Cache_Controller.M_I.WB_Ack::total       888190                      
system.ruby.L1Cache_Controller.SINK_WB_ACK.WB_Ack |           0      0.00%      0.00% |           0      0.00%      0.00% |          31     22.63%     22.63% |          33     24.09%     46.72% |          35     25.55%     72.26% |          38     27.74%    100.00% |           0      0.00%    100.00% |           0      0.00%    100.00%
system.ruby.L1Cache_Controller.SINK_WB_ACK.WB_Ack::total          137                      
system.ruby.L2Cache_Controller.L1_GET_INSTR       465510      0.00%      0.00%
system.ruby.L2Cache_Controller.L1_GETS         513858      0.00%      0.00%
system.ruby.L2Cache_Controller.L1_GETX         468364      0.00%      0.00%
system.ruby.L2Cache_Controller.L1_UPGRADE         8397      0.00%      0.00%
system.ruby.L2Cache_Controller.L1_PUTX         888190      0.00%      0.00%
system.ruby.L2Cache_Controller.L1_PUTX_old          184      0.00%      0.00%
system.ruby.L2Cache_Controller.L2_Replacement       420388      0.00%      0.00%
system.ruby.L2Cache_Controller.L2_Replacement_clean       354163      0.00%      0.00%
system.ruby.L2Cache_Controller.Mem_Data        775892      0.00%      0.00%
system.ruby.L2Cache_Controller.Mem_Ack         774551      0.00%      0.00%
system.ruby.L2Cache_Controller.WB_Data          42958      0.00%      0.00%
system.ruby.L2Cache_Controller.WB_Data_clean         5795      0.00%      0.00%
system.ruby.L2Cache_Controller.Ack              10871      0.00%      0.00%
system.ruby.L2Cache_Controller.Ack_all          28105      0.00%      0.00%
system.ruby.L2Cache_Controller.Unblock           6784      0.00%      0.00%
system.ruby.L2Cache_Controller.Exclusive_Unblock       961678      0.00%      0.00%
system.ruby.L2Cache_Controller.NP.L1_GET_INSTR         3849      0.00%      0.00%
system.ruby.L2Cache_Controller.NP.L1_GETS       380556      0.00%      0.00%
system.ruby.L2Cache_Controller.NP.L1_GETX       391487      0.00%      0.00%
system.ruby.L2Cache_Controller.NP.L1_PUTX_old           47      0.00%      0.00%
system.ruby.L2Cache_Controller.SS.L1_GET_INSTR       461636      0.00%      0.00%
system.ruby.L2Cache_Controller.SS.L1_GETS         1746      0.00%      0.00%
system.ruby.L2Cache_Controller.SS.L1_GETX            1      0.00%      0.00%
system.ruby.L2Cache_Controller.SS.L1_UPGRADE         8098      0.00%      0.00%
system.ruby.L2Cache_Controller.SS.L2_Replacement           53      0.00%      0.00%
system.ruby.L2Cache_Controller.SS.L2_Replacement_clean        11982      0.00%      0.00%
system.ruby.L2Cache_Controller.M.L1_GETS       114213      0.00%      0.00%
system.ruby.L2Cache_Controller.M.L1_GETX        67941      0.00%      0.00%
system.ruby.L2Cache_Controller.M.L2_Replacement       419232      0.00%      0.00%
system.ruby.L2Cache_Controller.M.L2_Replacement_clean       285245      0.00%      0.00%
system.ruby.L2Cache_Controller.MT.L1_GETS         6784      0.00%      0.00%
system.ruby.L2Cache_Controller.MT.L1_GETX         8664      0.00%      0.00%
system.ruby.L2Cache_Controller.MT.L1_PUTX       888190      0.00%      0.00%
system.ruby.L2Cache_Controller.MT.L2_Replacement         1103      0.00%      0.00%
system.ruby.L2Cache_Controller.MT.L2_Replacement_clean        56936      0.00%      0.00%
system.ruby.L2Cache_Controller.M_I.L1_GETS            3      0.00%      0.00%
system.ruby.L2Cache_Controller.M_I.L1_PUTX_old           90      0.00%      0.00%
system.ruby.L2Cache_Controller.M_I.Mem_Ack       774551      0.00%      0.00%
system.ruby.L2Cache_Controller.MT_I.WB_Data          709      0.00%      0.00%
system.ruby.L2Cache_Controller.MT_I.Ack_all          394      0.00%      0.00%
system.ruby.L2Cache_Controller.MCT_I.L1_PUTX_old           47      0.00%      0.00%
system.ruby.L2Cache_Controller.MCT_I.WB_Data        41253      0.00%      0.00%
system.ruby.L2Cache_Controller.MCT_I.WB_Data_clean            7      0.00%      0.00%
system.ruby.L2Cache_Controller.MCT_I.Ack_all        15676      0.00%      0.00%
system.ruby.L2Cache_Controller.I_I.Ack          10818      0.00%      0.00%
system.ruby.L2Cache_Controller.I_I.Ack_all        11982      0.00%      0.00%
system.ruby.L2Cache_Controller.S_I.Ack             53      0.00%      0.00%
system.ruby.L2Cache_Controller.S_I.Ack_all           53      0.00%      0.00%
system.ruby.L2Cache_Controller.ISS.L1_GETS         9282      0.00%      0.00%
system.ruby.L2Cache_Controller.ISS.Mem_Data       371274      0.00%      0.00%
system.ruby.L2Cache_Controller.IS.L1_GET_INSTR           25      0.00%      0.00%
system.ruby.L2Cache_Controller.IS.L1_GETS         1194      0.00%      0.00%
system.ruby.L2Cache_Controller.IS.Mem_Data        13131      0.00%      0.00%
system.ruby.L2Cache_Controller.IM.L1_GETX          166      0.00%      0.00%
system.ruby.L2Cache_Controller.IM.Mem_Data       391487      0.00%      0.00%
system.ruby.L2Cache_Controller.SS_MB.L1_GETS            6      0.00%      0.00%
system.ruby.L2Cache_Controller.SS_MB.L1_GETX           74      0.00%      0.00%
system.ruby.L2Cache_Controller.SS_MB.L1_UPGRADE          299      0.00%      0.00%
system.ruby.L2Cache_Controller.SS_MB.Exclusive_Unblock         8099      0.00%      0.00%
system.ruby.L2Cache_Controller.MT_MB.L1_GETS           55      0.00%      0.00%
system.ruby.L2Cache_Controller.MT_MB.L1_GETX           31      0.00%      0.00%
system.ruby.L2Cache_Controller.MT_MB.Exclusive_Unblock       953579      0.00%      0.00%
system.ruby.L2Cache_Controller.MT_IIB.L1_GETS           19      0.00%      0.00%
system.ruby.L2Cache_Controller.MT_IIB.WB_Data           21      0.00%      0.00%
system.ruby.L2Cache_Controller.MT_IIB.WB_Data_clean          158      0.00%      0.00%
system.ruby.L2Cache_Controller.MT_IIB.Unblock         6605      0.00%      0.00%
system.ruby.L2Cache_Controller.MT_IB.WB_Data          975      0.00%      0.00%
system.ruby.L2Cache_Controller.MT_IB.WB_Data_clean         5630      0.00%      0.00%
system.ruby.L2Cache_Controller.MT_SB.Unblock          179      0.00%      0.00%

---------- End Simulation Statistics   ----------
