
---------- Begin Simulation Statistics ----------
sim_seconds                                  0.002325                       # Number of seconds simulated
sim_ticks                                  2325141500                       # Number of ticks simulated
final_tick                                 2325141500                       # Number of ticks from beginning of simulation (restored from checkpoints and never reset)
sim_freq                                 1000000000000                       # Frequency of simulated ticks
host_inst_rate                                 193588                       # Simulator instruction rate (inst/s)
host_op_rate                                   373681                       # Simulator op (including micro ops) rate (op/s)
host_tick_rate                              346477644                       # Simulator tick rate (ticks/s)
host_mem_usage                                4511684                       # Number of bytes of host memory used
host_seconds                                     6.71                       # Real time elapsed on the host
sim_insts                                     1299125                       # Number of instructions simulated
sim_ops                                       2507694                       # Number of ops (including micro ops) simulated
system.voltage_domain.voltage                       1                       # Voltage in Volts
system.clk_domain.clock                          1000                       # Clock period in ticks
system.mem_ctrls.bytes_read::ruby.dir_cntrl0       109568                       # Number of bytes read from this memory
system.mem_ctrls.bytes_read::total             109568                       # Number of bytes read from this memory
system.mem_ctrls.bytes_written::ruby.dir_cntrl0          128                       # Number of bytes written to this memory
system.mem_ctrls.bytes_written::total             128                       # Number of bytes written to this memory
system.mem_ctrls.num_reads::ruby.dir_cntrl0          856                       # Number of read requests responded to by this memory
system.mem_ctrls.num_reads::total                 856                       # Number of read requests responded to by this memory
system.mem_ctrls.num_writes::ruby.dir_cntrl0            1                       # Number of write requests responded to by this memory
system.mem_ctrls.num_writes::total                  1                       # Number of write requests responded to by this memory
system.mem_ctrls.bw_read::ruby.dir_cntrl0     47123154                       # Total read bandwidth from this memory (bytes/s)
system.mem_ctrls.bw_read::total              47123154                       # Total read bandwidth from this memory (bytes/s)
system.mem_ctrls.bw_write::ruby.dir_cntrl0        55050                       # Write bandwidth from this memory (bytes/s)
system.mem_ctrls.bw_write::total                55050                       # Write bandwidth from this memory (bytes/s)
system.mem_ctrls.bw_total::ruby.dir_cntrl0     47178204                       # Total bandwidth to/from this memory (bytes/s)
system.mem_ctrls.bw_total::total             47178204                       # Total bandwidth to/from this memory (bytes/s)
system.mem_ctrls.readReqs                         856                       # Number of read requests accepted
system.mem_ctrls.writeReqs                          1                       # Number of write requests accepted
system.mem_ctrls.readBursts                      1712                       # Number of DRAM read bursts, including those serviced by the write queue
system.mem_ctrls.writeBursts                        2                       # Number of DRAM write bursts, including those merged in the write queue
system.mem_ctrls.bytesReadDRAM                 109568                       # Total number of bytes read from DRAM
system.mem_ctrls.bytesReadWrQ                       0                       # Total number of bytes read from write queue
system.mem_ctrls.bytesWritten                       0                       # Total number of bytes written to DRAM
system.mem_ctrls.bytesReadSys                  109568                       # Total read bytes from the system interface side
system.mem_ctrls.bytesWrittenSys                  128                       # Total written bytes from the system interface side
system.mem_ctrls.servicedByWrQ                      0                       # Number of DRAM read bursts serviced by the write queue
system.mem_ctrls.mergedWrBursts                     0                       # Number of DRAM write bursts merged with an existing one
system.mem_ctrls.neitherReadNorWriteReqs            0                       # Number of requests that are neither read nor write
system.mem_ctrls.perBankRdBursts::0               166                       # Per bank write bursts
system.mem_ctrls.perBankRdBursts::1               180                       # Per bank write bursts
system.mem_ctrls.perBankRdBursts::2               130                       # Per bank write bursts
system.mem_ctrls.perBankRdBursts::3                66                       # Per bank write bursts
system.mem_ctrls.perBankRdBursts::4                66                       # Per bank write bursts
system.mem_ctrls.perBankRdBursts::5               120                       # Per bank write bursts
system.mem_ctrls.perBankRdBursts::6               168                       # Per bank write bursts
system.mem_ctrls.perBankRdBursts::7                76                       # Per bank write bursts
system.mem_ctrls.perBankRdBursts::8                52                       # Per bank write bursts
system.mem_ctrls.perBankRdBursts::9                48                       # Per bank write bursts
system.mem_ctrls.perBankRdBursts::10               84                       # Per bank write bursts
system.mem_ctrls.perBankRdBursts::11               78                       # Per bank write bursts
system.mem_ctrls.perBankRdBursts::12               64                       # Per bank write bursts
system.mem_ctrls.perBankRdBursts::13               50                       # Per bank write bursts
system.mem_ctrls.perBankRdBursts::14              142                       # Per bank write bursts
system.mem_ctrls.perBankRdBursts::15              222                       # Per bank write bursts
system.mem_ctrls.perBankWrBursts::0                 0                       # Per bank write bursts
system.mem_ctrls.perBankWrBursts::1                 0                       # Per bank write bursts
system.mem_ctrls.perBankWrBursts::2                 0                       # Per bank write bursts
system.mem_ctrls.perBankWrBursts::3                 0                       # Per bank write bursts
system.mem_ctrls.perBankWrBursts::4                 0                       # Per bank write bursts
system.mem_ctrls.perBankWrBursts::5                 0                       # Per bank write bursts
system.mem_ctrls.perBankWrBursts::6                 0                       # Per bank write bursts
system.mem_ctrls.perBankWrBursts::7                 0                       # Per bank write bursts
system.mem_ctrls.perBankWrBursts::8                 0                       # Per bank write bursts
system.mem_ctrls.perBankWrBursts::9                 0                       # Per bank write bursts
system.mem_ctrls.perBankWrBursts::10                0                       # Per bank write bursts
system.mem_ctrls.perBankWrBursts::11                0                       # Per bank write bursts
system.mem_ctrls.perBankWrBursts::12                0                       # Per bank write bursts
system.mem_ctrls.perBankWrBursts::13                0                       # Per bank write bursts
system.mem_ctrls.perBankWrBursts::14                0                       # Per bank write bursts
system.mem_ctrls.perBankWrBursts::15                0                       # Per bank write bursts
system.mem_ctrls.numRdRetry                         0                       # Number of times read queue was full causing retry
system.mem_ctrls.numWrRetry                         0                       # Number of times write queue was full causing retry
system.mem_ctrls.totGap                    2325045000                       # Total gap between requests
system.mem_ctrls.readPktSize::0                     0                       # Read request sizes (log2)
system.mem_ctrls.readPktSize::1                     0                       # Read request sizes (log2)
system.mem_ctrls.readPktSize::2                     0                       # Read request sizes (log2)
system.mem_ctrls.readPktSize::3                     0                       # Read request sizes (log2)
system.mem_ctrls.readPktSize::4                     0                       # Read request sizes (log2)
system.mem_ctrls.readPktSize::5                     0                       # Read request sizes (log2)
system.mem_ctrls.readPktSize::6                  1712                       # Read request sizes (log2)
system.mem_ctrls.writePktSize::0                    0                       # Write request sizes (log2)
system.mem_ctrls.writePktSize::1                    0                       # Write request sizes (log2)
system.mem_ctrls.writePktSize::2                    0                       # Write request sizes (log2)
system.mem_ctrls.writePktSize::3                    0                       # Write request sizes (log2)
system.mem_ctrls.writePktSize::4                    0                       # Write request sizes (log2)
system.mem_ctrls.writePktSize::5                    0                       # Write request sizes (log2)
system.mem_ctrls.writePktSize::6                    2                       # Write request sizes (log2)
system.mem_ctrls.rdQLenPdf::0                     855                       # What read queue length does an incoming req see
system.mem_ctrls.rdQLenPdf::1                     856                       # What read queue length does an incoming req see
system.mem_ctrls.rdQLenPdf::2                       1                       # What read queue length does an incoming req see
system.mem_ctrls.rdQLenPdf::3                       0                       # What read queue length does an incoming req see
system.mem_ctrls.rdQLenPdf::4                       0                       # What read queue length does an incoming req see
system.mem_ctrls.rdQLenPdf::5                       0                       # What read queue length does an incoming req see
system.mem_ctrls.rdQLenPdf::6                       0                       # What read queue length does an incoming req see
system.mem_ctrls.rdQLenPdf::7                       0                       # What read queue length does an incoming req see
system.mem_ctrls.rdQLenPdf::8                       0                       # What read queue length does an incoming req see
system.mem_ctrls.rdQLenPdf::9                       0                       # What read queue length does an incoming req see
system.mem_ctrls.rdQLenPdf::10                      0                       # What read queue length does an incoming req see
system.mem_ctrls.rdQLenPdf::11                      0                       # What read queue length does an incoming req see
system.mem_ctrls.rdQLenPdf::12                      0                       # What read queue length does an incoming req see
system.mem_ctrls.rdQLenPdf::13                      0                       # What read queue length does an incoming req see
system.mem_ctrls.rdQLenPdf::14                      0                       # What read queue length does an incoming req see
system.mem_ctrls.rdQLenPdf::15                      0                       # What read queue length does an incoming req see
system.mem_ctrls.rdQLenPdf::16                      0                       # What read queue length does an incoming req see
system.mem_ctrls.rdQLenPdf::17                      0                       # What read queue length does an incoming req see
system.mem_ctrls.rdQLenPdf::18                      0                       # What read queue length does an incoming req see
system.mem_ctrls.rdQLenPdf::19                      0                       # What read queue length does an incoming req see
system.mem_ctrls.rdQLenPdf::20                      0                       # What read queue length does an incoming req see
system.mem_ctrls.rdQLenPdf::21                      0                       # What read queue length does an incoming req see
system.mem_ctrls.rdQLenPdf::22                      0                       # What read queue length does an incoming req see
system.mem_ctrls.rdQLenPdf::23                      0                       # What read queue length does an incoming req see
system.mem_ctrls.rdQLenPdf::24                      0                       # What read queue length does an incoming req see
system.mem_ctrls.rdQLenPdf::25                      0                       # What read queue length does an incoming req see
system.mem_ctrls.rdQLenPdf::26                      0                       # What read queue length does an incoming req see
system.mem_ctrls.rdQLenPdf::27                      0                       # What read queue length does an incoming req see
system.mem_ctrls.rdQLenPdf::28                      0                       # What read queue length does an incoming req see
system.mem_ctrls.rdQLenPdf::29                      0                       # What read queue length does an incoming req see
system.mem_ctrls.rdQLenPdf::30                      0                       # What read queue length does an incoming req see
system.mem_ctrls.rdQLenPdf::31                      0                       # What read queue length does an incoming req see
system.mem_ctrls.wrQLenPdf::0                       1                       # What write queue length does an incoming req see
system.mem_ctrls.wrQLenPdf::1                       1                       # What write queue length does an incoming req see
system.mem_ctrls.wrQLenPdf::2                       0                       # What write queue length does an incoming req see
system.mem_ctrls.wrQLenPdf::3                       0                       # What write queue length does an incoming req see
system.mem_ctrls.wrQLenPdf::4                       0                       # What write queue length does an incoming req see
system.mem_ctrls.wrQLenPdf::5                       0                       # What write queue length does an incoming req see
system.mem_ctrls.wrQLenPdf::6                       0                       # What write queue length does an incoming req see
system.mem_ctrls.wrQLenPdf::7                       0                       # What write queue length does an incoming req see
system.mem_ctrls.wrQLenPdf::8                       0                       # What write queue length does an incoming req see
system.mem_ctrls.wrQLenPdf::9                       0                       # What write queue length does an incoming req see
system.mem_ctrls.wrQLenPdf::10                      0                       # What write queue length does an incoming req see
system.mem_ctrls.wrQLenPdf::11                      0                       # What write queue length does an incoming req see
system.mem_ctrls.wrQLenPdf::12                      0                       # What write queue length does an incoming req see
system.mem_ctrls.wrQLenPdf::13                      0                       # What write queue length does an incoming req see
system.mem_ctrls.wrQLenPdf::14                      0                       # What write queue length does an incoming req see
system.mem_ctrls.wrQLenPdf::15                      0                       # What write queue length does an incoming req see
system.mem_ctrls.wrQLenPdf::16                      0                       # What write queue length does an incoming req see
system.mem_ctrls.wrQLenPdf::17                      0                       # What write queue length does an incoming req see
system.mem_ctrls.wrQLenPdf::18                      0                       # What write queue length does an incoming req see
system.mem_ctrls.wrQLenPdf::19                      0                       # What write queue length does an incoming req see
system.mem_ctrls.wrQLenPdf::20                      0                       # What write queue length does an incoming req see
system.mem_ctrls.wrQLenPdf::21                      0                       # What write queue length does an incoming req see
system.mem_ctrls.wrQLenPdf::22                      0                       # What write queue length does an incoming req see
system.mem_ctrls.wrQLenPdf::23                      0                       # What write queue length does an incoming req see
system.mem_ctrls.wrQLenPdf::24                      0                       # What write queue length does an incoming req see
system.mem_ctrls.wrQLenPdf::25                      0                       # What write queue length does an incoming req see
system.mem_ctrls.wrQLenPdf::26                      0                       # What write queue length does an incoming req see
system.mem_ctrls.wrQLenPdf::27                      0                       # What write queue length does an incoming req see
system.mem_ctrls.wrQLenPdf::28                      0                       # What write queue length does an incoming req see
system.mem_ctrls.wrQLenPdf::29                      0                       # What write queue length does an incoming req see
system.mem_ctrls.wrQLenPdf::30                      0                       # What write queue length does an incoming req see
system.mem_ctrls.wrQLenPdf::31                      0                       # What write queue length does an incoming req see
system.mem_ctrls.wrQLenPdf::32                      0                       # What write queue length does an incoming req see
system.mem_ctrls.wrQLenPdf::33                      0                       # What write queue length does an incoming req see
system.mem_ctrls.wrQLenPdf::34                      0                       # What write queue length does an incoming req see
system.mem_ctrls.wrQLenPdf::35                      0                       # What write queue length does an incoming req see
system.mem_ctrls.wrQLenPdf::36                      0                       # What write queue length does an incoming req see
system.mem_ctrls.wrQLenPdf::37                      0                       # What write queue length does an incoming req see
system.mem_ctrls.wrQLenPdf::38                      0                       # What write queue length does an incoming req see
system.mem_ctrls.wrQLenPdf::39                      0                       # What write queue length does an incoming req see
system.mem_ctrls.wrQLenPdf::40                      0                       # What write queue length does an incoming req see
system.mem_ctrls.wrQLenPdf::41                      0                       # What write queue length does an incoming req see
system.mem_ctrls.wrQLenPdf::42                      0                       # What write queue length does an incoming req see
system.mem_ctrls.wrQLenPdf::43                      0                       # What write queue length does an incoming req see
system.mem_ctrls.wrQLenPdf::44                      0                       # What write queue length does an incoming req see
system.mem_ctrls.wrQLenPdf::45                      0                       # What write queue length does an incoming req see
system.mem_ctrls.wrQLenPdf::46                      0                       # What write queue length does an incoming req see
system.mem_ctrls.wrQLenPdf::47                      0                       # What write queue length does an incoming req see
system.mem_ctrls.wrQLenPdf::48                      0                       # What write queue length does an incoming req see
system.mem_ctrls.wrQLenPdf::49                      0                       # What write queue length does an incoming req see
system.mem_ctrls.wrQLenPdf::50                      0                       # What write queue length does an incoming req see
system.mem_ctrls.wrQLenPdf::51                      0                       # What write queue length does an incoming req see
system.mem_ctrls.wrQLenPdf::52                      0                       # What write queue length does an incoming req see
system.mem_ctrls.wrQLenPdf::53                      0                       # What write queue length does an incoming req see
system.mem_ctrls.wrQLenPdf::54                      0                       # What write queue length does an incoming req see
system.mem_ctrls.wrQLenPdf::55                      0                       # What write queue length does an incoming req see
system.mem_ctrls.wrQLenPdf::56                      0                       # What write queue length does an incoming req see
system.mem_ctrls.wrQLenPdf::57                      0                       # What write queue length does an incoming req see
system.mem_ctrls.wrQLenPdf::58                      0                       # What write queue length does an incoming req see
system.mem_ctrls.wrQLenPdf::59                      0                       # What write queue length does an incoming req see
system.mem_ctrls.wrQLenPdf::60                      0                       # What write queue length does an incoming req see
system.mem_ctrls.wrQLenPdf::61                      0                       # What write queue length does an incoming req see
system.mem_ctrls.wrQLenPdf::62                      0                       # What write queue length does an incoming req see
system.mem_ctrls.wrQLenPdf::63                      0                       # What write queue length does an incoming req see
system.mem_ctrls.bytesPerActivate::samples          302                       # Bytes accessed per row activation
system.mem_ctrls.bytesPerActivate::mean    358.145695                       # Bytes accessed per row activation
system.mem_ctrls.bytesPerActivate::gmean   260.762466                       # Bytes accessed per row activation
system.mem_ctrls.bytesPerActivate::stdev   302.640701                       # Bytes accessed per row activation
system.mem_ctrls.bytesPerActivate::128-255          142     47.02%     47.02% # Bytes accessed per row activation
system.mem_ctrls.bytesPerActivate::256-383           48     15.89%     62.91% # Bytes accessed per row activation
system.mem_ctrls.bytesPerActivate::384-511           26      8.61%     71.52% # Bytes accessed per row activation
system.mem_ctrls.bytesPerActivate::512-639           20      6.62%     78.15% # Bytes accessed per row activation
system.mem_ctrls.bytesPerActivate::640-767           16      5.30%     83.44% # Bytes accessed per row activation
system.mem_ctrls.bytesPerActivate::768-895           12      3.97%     87.42% # Bytes accessed per row activation
system.mem_ctrls.bytesPerActivate::896-1023            7      2.32%     89.74% # Bytes accessed per row activation
system.mem_ctrls.bytesPerActivate::1024-1151           31     10.26%    100.00% # Bytes accessed per row activation
system.mem_ctrls.bytesPerActivate::total          302                       # Bytes accessed per row activation
system.mem_ctrls.totQLat                     20490000                       # Total ticks spent queuing
system.mem_ctrls.totMemAccLat                52590000                       # Total ticks spent from burst creation until serviced by the DRAM
system.mem_ctrls.totBusLat                    8560000                       # Total ticks spent in databus transfers
system.mem_ctrls.avgQLat                     11968.46                       # Average queueing delay per DRAM burst
system.mem_ctrls.avgBusLat                    5000.00                       # Average bus latency per DRAM burst
system.mem_ctrls.avgMemAccLat                30718.46                       # Average memory access latency per DRAM burst
system.mem_ctrls.avgRdBW                        47.12                       # Average DRAM read bandwidth in MiByte/s
system.mem_ctrls.avgWrBW                         0.00                       # Average achieved write bandwidth in MiByte/s
system.mem_ctrls.avgRdBWSys                     47.12                       # Average system read bandwidth in MiByte/s
system.mem_ctrls.avgWrBWSys                      0.06                       # Average system write bandwidth in MiByte/s
system.mem_ctrls.peakBW                      12800.00                       # Theoretical peak bandwidth in MiByte/s
system.mem_ctrls.busUtil                         0.37                       # Data bus utilization in percentage
system.mem_ctrls.busUtilRead                     0.37                       # Data bus utilization in percentage for reads
system.mem_ctrls.busUtilWrite                    0.00                       # Data bus utilization in percentage for writes
system.mem_ctrls.avgRdQLen                       2.00                       # Average read queue length when enqueuing
system.mem_ctrls.avgWrQLen                       1.27                       # Average write queue length when enqueuing
system.mem_ctrls.readRowHits                     1403                       # Number of row buffer hits during reads
system.mem_ctrls.writeRowHits                       0                       # Number of row buffer hits during writes
system.mem_ctrls.readRowHitRate                 81.95                       # Row buffer hit rate for reads
system.mem_ctrls.writeRowHitRate                 0.00                       # Row buffer hit rate for writes
system.mem_ctrls.avgGap                    2713004.67                       # Average gap between requests
system.mem_ctrls.pageHitRate                    81.86                       # Row buffer hit rate, read and write combined
system.mem_ctrls_0.actEnergy                  1058400                       # Energy for activate commands per rank (pJ)
system.mem_ctrls_0.preEnergy                   577500                       # Energy for precharge commands per rank (pJ)
system.mem_ctrls_0.readEnergy                 7441200                       # Energy for read commands per rank (pJ)
system.mem_ctrls_0.writeEnergy                      0                       # Energy for write commands per rank (pJ)
system.mem_ctrls_0.refreshEnergy            151550880                       # Energy for refresh commands per rank (pJ)
system.mem_ctrls_0.actBackEnergy            163399905                       # Energy for active background per rank (pJ)
system.mem_ctrls_0.preBackEnergy           1249004250                       # Energy for precharge background per rank (pJ)
system.mem_ctrls_0.totalEnergy             1573032135                       # Total energy per rank (pJ)
system.mem_ctrls_0.averagePower            677.866739                       # Core power per rank (mW)
system.mem_ctrls_0.memoryStateTime::IDLE   2077164000                       # Time in different power states
system.mem_ctrls_0.memoryStateTime::REF      77480000                       # Time in different power states
system.mem_ctrls_0.memoryStateTime::PRE_PDN            0                       # Time in different power states
system.mem_ctrls_0.memoryStateTime::ACT     165932250                       # Time in different power states
system.mem_ctrls_0.memoryStateTime::ACT_PDN            0                       # Time in different power states
system.mem_ctrls_1.actEnergy                  1171800                       # Energy for activate commands per rank (pJ)
system.mem_ctrls_1.preEnergy                   639375                       # Energy for precharge commands per rank (pJ)
system.mem_ctrls_1.readEnergy                 5569200                       # Energy for read commands per rank (pJ)
system.mem_ctrls_1.writeEnergy                      0                       # Energy for write commands per rank (pJ)
system.mem_ctrls_1.refreshEnergy            151550880                       # Energy for refresh commands per rank (pJ)
system.mem_ctrls_1.actBackEnergy            211527855                       # Energy for active background per rank (pJ)
system.mem_ctrls_1.preBackEnergy           1206778500                       # Energy for precharge background per rank (pJ)
system.mem_ctrls_1.totalEnergy             1577237610                       # Total energy per rank (pJ)
system.mem_ctrls_1.averagePower            679.683032                       # Core power per rank (mW)
system.mem_ctrls_1.memoryStateTime::IDLE   2007407250                       # Time in different power states
system.mem_ctrls_1.memoryStateTime::REF      77480000                       # Time in different power states
system.mem_ctrls_1.memoryStateTime::PRE_PDN            0                       # Time in different power states
system.mem_ctrls_1.memoryStateTime::ACT     236612250                       # Time in different power states
system.mem_ctrls_1.memoryStateTime::ACT_PDN            0                       # Time in different power states
system.ruby_clk_domain.clock                      500                       # Clock period in ticks
system.ruby.phys_mem.bytes_read::cpu0.inst     14182304                       # Number of bytes read from this memory
system.ruby.phys_mem.bytes_read::cpu0.data      1825501                       # Number of bytes read from this memory
system.ruby.phys_mem.bytes_read::gpu.ce          3072                       # Number of bytes read from this memory
system.ruby.phys_mem.bytes_read::gpu.shader_cores0.data          768                       # Number of bytes read from this memory
system.ruby.phys_mem.bytes_read::gpu.shader_cores0.inst          256                       # Number of bytes read from this memory
system.ruby.phys_mem.bytes_read::gpu.shader_cores1.data         1792                       # Number of bytes read from this memory
system.ruby.phys_mem.bytes_read::gpu.shader_cores1.inst          256                       # Number of bytes read from this memory
system.ruby.phys_mem.bytes_read::gpu.shader_cores2.data         1792                       # Number of bytes read from this memory
system.ruby.phys_mem.bytes_read::gpu.shader_cores2.inst          256                       # Number of bytes read from this memory
system.ruby.phys_mem.bytes_read::gpu.shader_cores3.data          768                       # Number of bytes read from this memory
system.ruby.phys_mem.bytes_read::gpu.shader_cores3.inst          256                       # Number of bytes read from this memory
system.ruby.phys_mem.bytes_read::total       16017021                       # Number of bytes read from this memory
system.ruby.phys_mem.bytes_inst_read::cpu0.inst     14182304                       # Number of instructions bytes read from this memory
system.ruby.phys_mem.bytes_inst_read::gpu.shader_cores0.inst          256                       # Number of instructions bytes read from this memory
system.ruby.phys_mem.bytes_inst_read::gpu.shader_cores1.inst          256                       # Number of instructions bytes read from this memory
system.ruby.phys_mem.bytes_inst_read::gpu.shader_cores2.inst          256                       # Number of instructions bytes read from this memory
system.ruby.phys_mem.bytes_inst_read::gpu.shader_cores3.inst          256                       # Number of instructions bytes read from this memory
system.ruby.phys_mem.bytes_inst_read::total     14183328                       # Number of instructions bytes read from this memory
system.ruby.phys_mem.bytes_written::cpu0.data      1248156                       # Number of bytes written to this memory
system.ruby.phys_mem.bytes_written::gpu.ce         3072                       # Number of bytes written to this memory
system.ruby.phys_mem.bytes_written::gpu.shader_cores0.data           64                       # Number of bytes written to this memory
system.ruby.phys_mem.bytes_written::gpu.shader_cores1.data          576                       # Number of bytes written to this memory
system.ruby.phys_mem.bytes_written::gpu.shader_cores2.data          192                       # Number of bytes written to this memory
system.ruby.phys_mem.bytes_written::gpu.shader_cores3.data          192                       # Number of bytes written to this memory
system.ruby.phys_mem.bytes_written::total      1252252                       # Number of bytes written to this memory
system.ruby.phys_mem.num_reads::cpu0.inst      1772788                       # Number of read requests responded to by this memory
system.ruby.phys_mem.num_reads::cpu0.data       286132                       # Number of read requests responded to by this memory
system.ruby.phys_mem.num_reads::gpu.ce             26                       # Number of read requests responded to by this memory
system.ruby.phys_mem.num_reads::gpu.shader_cores0.data            6                       # Number of read requests responded to by this memory
system.ruby.phys_mem.num_reads::gpu.shader_cores0.inst           16                       # Number of read requests responded to by this memory
system.ruby.phys_mem.num_reads::gpu.shader_cores1.data           14                       # Number of read requests responded to by this memory
system.ruby.phys_mem.num_reads::gpu.shader_cores1.inst           16                       # Number of read requests responded to by this memory
system.ruby.phys_mem.num_reads::gpu.shader_cores2.data           14                       # Number of read requests responded to by this memory
system.ruby.phys_mem.num_reads::gpu.shader_cores2.inst           16                       # Number of read requests responded to by this memory
system.ruby.phys_mem.num_reads::gpu.shader_cores3.data            6                       # Number of read requests responded to by this memory
system.ruby.phys_mem.num_reads::gpu.shader_cores3.inst           16                       # Number of read requests responded to by this memory
system.ruby.phys_mem.num_reads::total         2059050                       # Number of read requests responded to by this memory
system.ruby.phys_mem.num_writes::cpu0.data       186878                       # Number of write requests responded to by this memory
system.ruby.phys_mem.num_writes::gpu.ce            25                       # Number of write requests responded to by this memory
system.ruby.phys_mem.num_writes::gpu.shader_cores0.data            4                       # Number of write requests responded to by this memory
system.ruby.phys_mem.num_writes::gpu.shader_cores1.data           12                       # Number of write requests responded to by this memory
system.ruby.phys_mem.num_writes::gpu.shader_cores2.data           12                       # Number of write requests responded to by this memory
system.ruby.phys_mem.num_writes::gpu.shader_cores3.data            4                       # Number of write requests responded to by this memory
system.ruby.phys_mem.num_writes::total         186935                       # Number of write requests responded to by this memory
system.ruby.phys_mem.bw_read::cpu0.inst    6099544479                       # Total read bandwidth from this memory (bytes/s)
system.ruby.phys_mem.bw_read::cpu0.data     785113938                       # Total read bandwidth from this memory (bytes/s)
system.ruby.phys_mem.bw_read::gpu.ce          1321210                       # Total read bandwidth from this memory (bytes/s)
system.ruby.phys_mem.bw_read::gpu.shader_cores0.data       330302                       # Total read bandwidth from this memory (bytes/s)
system.ruby.phys_mem.bw_read::gpu.shader_cores0.inst       110101                       # Total read bandwidth from this memory (bytes/s)
system.ruby.phys_mem.bw_read::gpu.shader_cores1.data       770706                       # Total read bandwidth from this memory (bytes/s)
system.ruby.phys_mem.bw_read::gpu.shader_cores1.inst       110101                       # Total read bandwidth from this memory (bytes/s)
system.ruby.phys_mem.bw_read::gpu.shader_cores2.data       770706                       # Total read bandwidth from this memory (bytes/s)
system.ruby.phys_mem.bw_read::gpu.shader_cores2.inst       110101                       # Total read bandwidth from this memory (bytes/s)
system.ruby.phys_mem.bw_read::gpu.shader_cores3.data       330302                       # Total read bandwidth from this memory (bytes/s)
system.ruby.phys_mem.bw_read::gpu.shader_cores3.inst       110101                       # Total read bandwidth from this memory (bytes/s)
system.ruby.phys_mem.bw_read::total        6888622047                       # Total read bandwidth from this memory (bytes/s)
system.ruby.phys_mem.bw_inst_read::cpu0.inst   6099544479                       # Instruction read bandwidth from this memory (bytes/s)
system.ruby.phys_mem.bw_inst_read::gpu.shader_cores0.inst       110101                       # Instruction read bandwidth from this memory (bytes/s)
system.ruby.phys_mem.bw_inst_read::gpu.shader_cores1.inst       110101                       # Instruction read bandwidth from this memory (bytes/s)
system.ruby.phys_mem.bw_inst_read::gpu.shader_cores2.inst       110101                       # Instruction read bandwidth from this memory (bytes/s)
system.ruby.phys_mem.bw_inst_read::gpu.shader_cores3.inst       110101                       # Instruction read bandwidth from this memory (bytes/s)
system.ruby.phys_mem.bw_inst_read::total   6099984883                       # Instruction read bandwidth from this memory (bytes/s)
system.ruby.phys_mem.bw_write::cpu0.data    536808620                       # Write bandwidth from this memory (bytes/s)
system.ruby.phys_mem.bw_write::gpu.ce         1321210                       # Write bandwidth from this memory (bytes/s)
system.ruby.phys_mem.bw_write::gpu.shader_cores0.data        27525                       # Write bandwidth from this memory (bytes/s)
system.ruby.phys_mem.bw_write::gpu.shader_cores1.data       247727                       # Write bandwidth from this memory (bytes/s)
system.ruby.phys_mem.bw_write::gpu.shader_cores2.data        82576                       # Write bandwidth from this memory (bytes/s)
system.ruby.phys_mem.bw_write::gpu.shader_cores3.data        82576                       # Write bandwidth from this memory (bytes/s)
system.ruby.phys_mem.bw_write::total        538570233                       # Write bandwidth from this memory (bytes/s)
system.ruby.phys_mem.bw_total::cpu0.inst   6099544479                       # Total bandwidth to/from this memory (bytes/s)
system.ruby.phys_mem.bw_total::cpu0.data   1321922558                       # Total bandwidth to/from this memory (bytes/s)
system.ruby.phys_mem.bw_total::gpu.ce         2642420                       # Total bandwidth to/from this memory (bytes/s)
system.ruby.phys_mem.bw_total::gpu.shader_cores0.data       357828                       # Total bandwidth to/from this memory (bytes/s)
system.ruby.phys_mem.bw_total::gpu.shader_cores0.inst       110101                       # Total bandwidth to/from this memory (bytes/s)
system.ruby.phys_mem.bw_total::gpu.shader_cores1.data      1018433                       # Total bandwidth to/from this memory (bytes/s)
system.ruby.phys_mem.bw_total::gpu.shader_cores1.inst       110101                       # Total bandwidth to/from this memory (bytes/s)
system.ruby.phys_mem.bw_total::gpu.shader_cores2.data       853281                       # Total bandwidth to/from this memory (bytes/s)
system.ruby.phys_mem.bw_total::gpu.shader_cores2.inst       110101                       # Total bandwidth to/from this memory (bytes/s)
system.ruby.phys_mem.bw_total::gpu.shader_cores3.data       412878                       # Total bandwidth to/from this memory (bytes/s)
system.ruby.phys_mem.bw_total::gpu.shader_cores3.inst       110101                       # Total bandwidth to/from this memory (bytes/s)
system.ruby.phys_mem.bw_total::total       7427192281                       # Total bandwidth to/from this memory (bytes/s)
system.cpu_voltage_domain.voltage                   1                       # Voltage in Volts
system.cpu_clk_domain.clock                       500                       # Clock period in ticks
system.cpu0.apic_clk_domain.clock                8000                       # Clock period in ticks
system.cpu0.workload.num_syscalls                  41                       # Number of system calls
system.cpu0.numCycles                         4650283                       # number of cpu cycles simulated
system.cpu0.numWorkItemsStarted                     1                       # number of work items this cpu started
system.cpu0.numWorkItemsCompleted                   1                       # number of work items this cpu completed
system.cpu0.committedInsts                    1299125                       # Number of instructions committed
system.cpu0.committedOps                      2507694                       # Number of ops (including micro ops) committed
system.cpu0.num_int_alu_accesses              2476084                       # Number of integer alu accesses
system.cpu0.num_fp_alu_accesses                 26134                       # Number of float alu accesses
system.cpu0.num_func_calls                      34041                       # number of times a function call or return occured
system.cpu0.num_conditional_control_insts       233799                       # number of instructions that are conditional controls
system.cpu0.num_int_insts                     2476084                       # number of integer instructions
system.cpu0.num_fp_insts                        26134                       # number of float instructions
system.cpu0.num_int_register_reads            4882752                       # number of times the integer registers were read
system.cpu0.num_int_register_writes           2044551                       # number of times the integer registers were written
system.cpu0.num_fp_register_reads               38169                       # number of times the floating registers were read
system.cpu0.num_fp_register_writes              19593                       # number of times the floating registers were written
system.cpu0.num_cc_register_reads             1632000                       # number of times the CC registers were read
system.cpu0.num_cc_register_writes             811493                       # number of times the CC registers were written
system.cpu0.num_mem_refs                       473006                       # number of memory refs
system.cpu0.num_load_insts                     286129                       # Number of load instructions
system.cpu0.num_store_insts                    186877                       # Number of store instructions
system.cpu0.num_idle_cycles              23473.007990                       # Number of idle cycles
system.cpu0.num_busy_cycles              4626809.992010                       # Number of busy cycles
system.cpu0.not_idle_fraction                0.994952                       # Percentage of non-idle cycles
system.cpu0.idle_fraction                    0.005048                       # Percentage of idle cycles
system.cpu0.Branches                           300199                       # Number of branches fetched
system.cpu0.op_class::No_OpClass                14984      0.60%      0.60% # Class of executed instruction
system.cpu0.op_class::IntAlu                  1975036     78.76%     79.36% # Class of executed instruction
system.cpu0.op_class::IntMult                    2413      0.10%     79.45% # Class of executed instruction
system.cpu0.op_class::IntDiv                    24326      0.97%     80.42% # Class of executed instruction
system.cpu0.op_class::FloatAdd                  17929      0.71%     81.14% # Class of executed instruction
system.cpu0.op_class::FloatCmp                      0      0.00%     81.14% # Class of executed instruction
system.cpu0.op_class::FloatCvt                      0      0.00%     81.14% # Class of executed instruction
system.cpu0.op_class::FloatMult                     0      0.00%     81.14% # Class of executed instruction
system.cpu0.op_class::FloatDiv                      0      0.00%     81.14% # Class of executed instruction
system.cpu0.op_class::FloatSqrt                     0      0.00%     81.14% # Class of executed instruction
system.cpu0.op_class::SimdAdd                       0      0.00%     81.14% # Class of executed instruction
system.cpu0.op_class::SimdAddAcc                    0      0.00%     81.14% # Class of executed instruction
system.cpu0.op_class::SimdAlu                       0      0.00%     81.14% # Class of executed instruction
system.cpu0.op_class::SimdCmp                       0      0.00%     81.14% # Class of executed instruction
system.cpu0.op_class::SimdCvt                       0      0.00%     81.14% # Class of executed instruction
system.cpu0.op_class::SimdMisc                      0      0.00%     81.14% # Class of executed instruction
system.cpu0.op_class::SimdMult                      0      0.00%     81.14% # Class of executed instruction
system.cpu0.op_class::SimdMultAcc                   0      0.00%     81.14% # Class of executed instruction
system.cpu0.op_class::SimdShift                     0      0.00%     81.14% # Class of executed instruction
system.cpu0.op_class::SimdShiftAcc                  0      0.00%     81.14% # Class of executed instruction
system.cpu0.op_class::SimdSqrt                      0      0.00%     81.14% # Class of executed instruction
system.cpu0.op_class::SimdFloatAdd                  0      0.00%     81.14% # Class of executed instruction
system.cpu0.op_class::SimdFloatAlu                  0      0.00%     81.14% # Class of executed instruction
system.cpu0.op_class::SimdFloatCmp                  0      0.00%     81.14% # Class of executed instruction
system.cpu0.op_class::SimdFloatCvt                  0      0.00%     81.14% # Class of executed instruction
system.cpu0.op_class::SimdFloatDiv                  0      0.00%     81.14% # Class of executed instruction
system.cpu0.op_class::SimdFloatMisc                 0      0.00%     81.14% # Class of executed instruction
system.cpu0.op_class::SimdFloatMult                 0      0.00%     81.14% # Class of executed instruction
system.cpu0.op_class::SimdFloatMultAcc              0      0.00%     81.14% # Class of executed instruction
system.cpu0.op_class::SimdFloatSqrt                 0      0.00%     81.14% # Class of executed instruction
system.cpu0.op_class::MemRead                  286129     11.41%     92.55% # Class of executed instruction
system.cpu0.op_class::MemWrite                 186877      7.45%    100.00% # Class of executed instruction
system.cpu0.op_class::IprAccess                     0      0.00%    100.00% # Class of executed instruction
system.cpu0.op_class::InstPrefetch                  0      0.00%    100.00% # Class of executed instruction
system.cpu0.op_class::total                   2507694                       # Class of executed instruction
system.cpu1.apic_clk_domain.clock                8000                       # Clock period in ticks
system.cpu1.numCycles                               0                       # number of cpu cycles simulated
system.cpu1.numWorkItemsStarted                     0                       # number of work items this cpu started
system.cpu1.numWorkItemsCompleted                   0                       # number of work items this cpu completed
system.cpu1.committedInsts                          0                       # Number of instructions committed
system.cpu1.committedOps                            0                       # Number of ops (including micro ops) committed
system.cpu1.num_int_alu_accesses                    0                       # Number of integer alu accesses
system.cpu1.num_fp_alu_accesses                     0                       # Number of float alu accesses
system.cpu1.num_func_calls                          0                       # number of times a function call or return occured
system.cpu1.num_conditional_control_insts            0                       # number of instructions that are conditional controls
system.cpu1.num_int_insts                           0                       # number of integer instructions
system.cpu1.num_fp_insts                            0                       # number of float instructions
system.cpu1.num_int_register_reads                  0                       # number of times the integer registers were read
system.cpu1.num_int_register_writes                 0                       # number of times the integer registers were written
system.cpu1.num_fp_register_reads                   0                       # number of times the floating registers were read
system.cpu1.num_fp_register_writes                  0                       # number of times the floating registers were written
system.cpu1.num_mem_refs                            0                       # number of memory refs
system.cpu1.num_load_insts                          0                       # Number of load instructions
system.cpu1.num_store_insts                         0                       # Number of store instructions
system.cpu1.num_idle_cycles                         0                       # Number of idle cycles
system.cpu1.num_busy_cycles                         0                       # Number of busy cycles
system.cpu1.not_idle_fraction                       0                       # Percentage of non-idle cycles
system.cpu1.idle_fraction                           1                       # Percentage of idle cycles
system.cpu1.op_class::No_OpClass                    0                       # Class of executed instruction
system.cpu1.op_class::IntAlu                        0                       # Class of executed instruction
system.cpu1.op_class::IntMult                       0                       # Class of executed instruction
system.cpu1.op_class::IntDiv                        0                       # Class of executed instruction
system.cpu1.op_class::FloatAdd                      0                       # Class of executed instruction
system.cpu1.op_class::FloatCmp                      0                       # Class of executed instruction
system.cpu1.op_class::FloatCvt                      0                       # Class of executed instruction
system.cpu1.op_class::FloatMult                     0                       # Class of executed instruction
system.cpu1.op_class::FloatDiv                      0                       # Class of executed instruction
system.cpu1.op_class::FloatSqrt                     0                       # Class of executed instruction
system.cpu1.op_class::SimdAdd                       0                       # Class of executed instruction
system.cpu1.op_class::SimdAddAcc                    0                       # Class of executed instruction
system.cpu1.op_class::SimdAlu                       0                       # Class of executed instruction
system.cpu1.op_class::SimdCmp                       0                       # Class of executed instruction
system.cpu1.op_class::SimdCvt                       0                       # Class of executed instruction
system.cpu1.op_class::SimdMisc                      0                       # Class of executed instruction
system.cpu1.op_class::SimdMult                      0                       # Class of executed instruction
system.cpu1.op_class::SimdMultAcc                   0                       # Class of executed instruction
system.cpu1.op_class::SimdShift                     0                       # Class of executed instruction
system.cpu1.op_class::SimdShiftAcc                  0                       # Class of executed instruction
system.cpu1.op_class::SimdSqrt                      0                       # Class of executed instruction
system.cpu1.op_class::SimdFloatAdd                  0                       # Class of executed instruction
system.cpu1.op_class::SimdFloatAlu                  0                       # Class of executed instruction
system.cpu1.op_class::SimdFloatCmp                  0                       # Class of executed instruction
system.cpu1.op_class::SimdFloatCvt                  0                       # Class of executed instruction
system.cpu1.op_class::SimdFloatDiv                  0                       # Class of executed instruction
system.cpu1.op_class::SimdFloatMisc                 0                       # Class of executed instruction
system.cpu1.op_class::SimdFloatMult                 0                       # Class of executed instruction
system.cpu1.op_class::SimdFloatMultAcc              0                       # Class of executed instruction
system.cpu1.op_class::SimdFloatSqrt                 0                       # Class of executed instruction
system.cpu1.op_class::MemRead                       0                       # Class of executed instruction
system.cpu1.op_class::MemWrite                      0                       # Class of executed instruction
system.cpu1.op_class::IprAccess                     0                       # Class of executed instruction
system.cpu1.op_class::InstPrefetch                  0                       # Class of executed instruction
system.cpu1.op_class::total                         0                       # Class of executed instruction
system.gpu.clk_domain.voltage_domain.voltage            1                       # Voltage in Volts
system.gpu.clk_domain.clock                      1429                       # Clock period in ticks
system.gpu.dram_wrapper.clk_domain.clock          541                       # Clock period in ticks
system.gpu.icnt_wrapper.clk_domain.clock         2858                       # Clock period in ticks
system.ruby.delayHist::bucket_size                 32                       # delay histogram for all message
system.ruby.delayHist::max_bucket                 319                       # delay histogram for all message
system.ruby.delayHist::samples                   5876                       # delay histogram for all message
system.ruby.delayHist::mean                  1.548332                       # delay histogram for all message
system.ruby.delayHist::stdev                11.298995                       # delay histogram for all message
system.ruby.delayHist                    |        5784     98.43%     98.43% |          48      0.82%     99.25% |          19      0.32%     99.57% |          12      0.20%     99.78% |           6      0.10%     99.88% |           4      0.07%     99.95% |           3      0.05%    100.00% |           0      0.00%    100.00% |           0      0.00%    100.00% |           0      0.00%    100.00% # delay histogram for all message
system.ruby.delayHist::total                     5876                       # delay histogram for all message
system.ruby.outstanding_req_hist::bucket_size            1                      
system.ruby.outstanding_req_hist::max_bucket            9                      
system.ruby.outstanding_req_hist::samples      2245985                      
system.ruby.outstanding_req_hist::mean       1.000173                      
system.ruby.outstanding_req_hist::gmean      1.000068                      
system.ruby.outstanding_req_hist::stdev      0.029161                      
system.ruby.outstanding_req_hist         |           0      0.00%      0.00% |     2245876    100.00%    100.00% |          26      0.00%    100.00% |          17      0.00%    100.00% |          19      0.00%    100.00% |          13      0.00%    100.00% |           7      0.00%    100.00% |           7      0.00%    100.00% |          18      0.00%    100.00% |           2      0.00%    100.00%
system.ruby.outstanding_req_hist::total       2245985                      
system.ruby.latency_hist::bucket_size             128                      
system.ruby.latency_hist::max_bucket             1279                      
system.ruby.latency_hist::samples             2245985                      
system.ruby.latency_hist::mean               1.066434                      
system.ruby.latency_hist::gmean              1.003616                      
system.ruby.latency_hist::stdev              3.085669                      
system.ruby.latency_hist                 |     2245660     99.99%     99.99% |         309      0.01%    100.00% |           0      0.00%    100.00% |           4      0.00%    100.00% |           7      0.00%    100.00% |           5      0.00%    100.00% |           0      0.00%    100.00% |           0      0.00%    100.00% |           0      0.00%    100.00% |           0      0.00%    100.00%
system.ruby.latency_hist::total               2245985                      
system.ruby.hit_latency_hist::bucket_size            1                      
system.ruby.hit_latency_hist::max_bucket            9                      
system.ruby.hit_latency_hist::samples         2243820                      
system.ruby.hit_latency_hist::mean                  1                      
system.ruby.hit_latency_hist::gmean                 1                      
system.ruby.hit_latency_hist             |           0      0.00%      0.00% |     2243820    100.00%    100.00% |           0      0.00%    100.00% |           0      0.00%    100.00% |           0      0.00%    100.00% |           0      0.00%    100.00% |           0      0.00%    100.00% |           0      0.00%    100.00% |           0      0.00%    100.00% |           0      0.00%    100.00%
system.ruby.hit_latency_hist::total           2243820                      
system.ruby.miss_latency_hist::bucket_size          128                      
system.ruby.miss_latency_hist::max_bucket         1279                      
system.ruby.miss_latency_hist::samples           2165                      
system.ruby.miss_latency_hist::mean         69.919169                      
system.ruby.miss_latency_hist::gmean        42.287089                      
system.ruby.miss_latency_hist::stdev        71.656183                      
system.ruby.miss_latency_hist            |        1840     84.99%     84.99% |         309     14.27%     99.26% |           0      0.00%     99.26% |           4      0.18%     99.45% |           7      0.32%     99.77% |           5      0.23%    100.00% |           0      0.00%    100.00% |           0      0.00%    100.00% |           0      0.00%    100.00% |           0      0.00%    100.00%
system.ruby.miss_latency_hist::total             2165                      
system.gpu.shader_mmu.numPagefaults                 0                       # Number of Pagefaults
system.gpu.shader_mmu.numPagewalks                  9                       # Number of Pagewalks
system.gpu.shader_mmu.totalRequests                 9                       # Total number of requests
system.gpu.shader_mmu.l2hits                        0                       # Hits in the shared L2
system.gpu.shader_mmu.prefetchHits                  0                       # Number of prefetch hits
system.gpu.shader_mmu.numPrefetches                 0                       # Number of prefetchs
system.gpu.shader_mmu.prefetchFaults                0                       # Number of faults caused by prefetches
system.gpu.shader_mmu.pagefaultLatency::samples            0                       # Latency to complete the pagefault
system.gpu.shader_mmu.pagefaultLatency::mean          nan                       # Latency to complete the pagefault
system.gpu.shader_mmu.pagefaultLatency::gmean          nan                       # Latency to complete the pagefault
system.gpu.shader_mmu.pagefaultLatency::stdev          nan                       # Latency to complete the pagefault
system.gpu.shader_mmu.pagefaultLatency::0            0                       # Latency to complete the pagefault
system.gpu.shader_mmu.pagefaultLatency::1            0                       # Latency to complete the pagefault
system.gpu.shader_mmu.pagefaultLatency::2            0                       # Latency to complete the pagefault
system.gpu.shader_mmu.pagefaultLatency::3            0                       # Latency to complete the pagefault
system.gpu.shader_mmu.pagefaultLatency::4            0                       # Latency to complete the pagefault
system.gpu.shader_mmu.pagefaultLatency::5            0                       # Latency to complete the pagefault
system.gpu.shader_mmu.pagefaultLatency::6            0                       # Latency to complete the pagefault
system.gpu.shader_mmu.pagefaultLatency::7            0                       # Latency to complete the pagefault
system.gpu.shader_mmu.pagefaultLatency::8            0                       # Latency to complete the pagefault
system.gpu.shader_mmu.pagefaultLatency::9            0                       # Latency to complete the pagefault
system.gpu.shader_mmu.pagefaultLatency::10            0                       # Latency to complete the pagefault
system.gpu.shader_mmu.pagefaultLatency::11            0                       # Latency to complete the pagefault
system.gpu.shader_mmu.pagefaultLatency::12            0                       # Latency to complete the pagefault
system.gpu.shader_mmu.pagefaultLatency::13            0                       # Latency to complete the pagefault
system.gpu.shader_mmu.pagefaultLatency::14            0                       # Latency to complete the pagefault
system.gpu.shader_mmu.pagefaultLatency::15            0                       # Latency to complete the pagefault
system.gpu.shader_mmu.pagefaultLatency::16            0                       # Latency to complete the pagefault
system.gpu.shader_mmu.pagefaultLatency::17            0                       # Latency to complete the pagefault
system.gpu.shader_mmu.pagefaultLatency::18            0                       # Latency to complete the pagefault
system.gpu.shader_mmu.pagefaultLatency::19            0                       # Latency to complete the pagefault
system.gpu.shader_mmu.pagefaultLatency::20            0                       # Latency to complete the pagefault
system.gpu.shader_mmu.pagefaultLatency::21            0                       # Latency to complete the pagefault
system.gpu.shader_mmu.pagefaultLatency::22            0                       # Latency to complete the pagefault
system.gpu.shader_mmu.pagefaultLatency::23            0                       # Latency to complete the pagefault
system.gpu.shader_mmu.pagefaultLatency::24            0                       # Latency to complete the pagefault
system.gpu.shader_mmu.pagefaultLatency::25            0                       # Latency to complete the pagefault
system.gpu.shader_mmu.pagefaultLatency::26            0                       # Latency to complete the pagefault
system.gpu.shader_mmu.pagefaultLatency::27            0                       # Latency to complete the pagefault
system.gpu.shader_mmu.pagefaultLatency::28            0                       # Latency to complete the pagefault
system.gpu.shader_mmu.pagefaultLatency::29            0                       # Latency to complete the pagefault
system.gpu.shader_mmu.pagefaultLatency::30            0                       # Latency to complete the pagefault
system.gpu.shader_mmu.pagefaultLatency::31            0                       # Latency to complete the pagefault
system.gpu.shader_mmu.pagefaultLatency::total            0                       # Latency to complete the pagefault
system.gpu.shader_mmu.concurrentWalks::samples            9                       # Number of outstanding walks
system.gpu.shader_mmu.concurrentWalks::mean            0                       # Number of outstanding walks
system.gpu.shader_mmu.concurrentWalks::gmean            0                       # Number of outstanding walks
system.gpu.shader_mmu.concurrentWalks::stdev            0                       # Number of outstanding walks
system.gpu.shader_mmu.concurrentWalks::0            9    100.00%    100.00% # Number of outstanding walks
system.gpu.shader_mmu.concurrentWalks::1            0      0.00%    100.00% # Number of outstanding walks
system.gpu.shader_mmu.concurrentWalks::2            0      0.00%    100.00% # Number of outstanding walks
system.gpu.shader_mmu.concurrentWalks::3            0      0.00%    100.00% # Number of outstanding walks
system.gpu.shader_mmu.concurrentWalks::4            0      0.00%    100.00% # Number of outstanding walks
system.gpu.shader_mmu.concurrentWalks::5            0      0.00%    100.00% # Number of outstanding walks
system.gpu.shader_mmu.concurrentWalks::6            0      0.00%    100.00% # Number of outstanding walks
system.gpu.shader_mmu.concurrentWalks::7            0      0.00%    100.00% # Number of outstanding walks
system.gpu.shader_mmu.concurrentWalks::8            0      0.00%    100.00% # Number of outstanding walks
system.gpu.shader_mmu.concurrentWalks::9            0      0.00%    100.00% # Number of outstanding walks
system.gpu.shader_mmu.concurrentWalks::10            0      0.00%    100.00% # Number of outstanding walks
system.gpu.shader_mmu.concurrentWalks::11            0      0.00%    100.00% # Number of outstanding walks
system.gpu.shader_mmu.concurrentWalks::12            0      0.00%    100.00% # Number of outstanding walks
system.gpu.shader_mmu.concurrentWalks::13            0      0.00%    100.00% # Number of outstanding walks
system.gpu.shader_mmu.concurrentWalks::14            0      0.00%    100.00% # Number of outstanding walks
system.gpu.shader_mmu.concurrentWalks::15            0      0.00%    100.00% # Number of outstanding walks
system.gpu.shader_mmu.concurrentWalks::total            9                       # Number of outstanding walks
system.gpu.shader_mmu.pagewalkLatency::samples            9                       # Latency to complete the pagewalk
system.gpu.shader_mmu.pagewalkLatency::mean            0                       # Latency to complete the pagewalk
system.gpu.shader_mmu.pagewalkLatency::gmean            0                       # Latency to complete the pagewalk
system.gpu.shader_mmu.pagewalkLatency::stdev            0                       # Latency to complete the pagewalk
system.gpu.shader_mmu.pagewalkLatency::0            9    100.00%    100.00% # Latency to complete the pagewalk
system.gpu.shader_mmu.pagewalkLatency::1            0      0.00%    100.00% # Latency to complete the pagewalk
system.gpu.shader_mmu.pagewalkLatency::2            0      0.00%    100.00% # Latency to complete the pagewalk
system.gpu.shader_mmu.pagewalkLatency::3            0      0.00%    100.00% # Latency to complete the pagewalk
system.gpu.shader_mmu.pagewalkLatency::4            0      0.00%    100.00% # Latency to complete the pagewalk
system.gpu.shader_mmu.pagewalkLatency::5            0      0.00%    100.00% # Latency to complete the pagewalk
system.gpu.shader_mmu.pagewalkLatency::6            0      0.00%    100.00% # Latency to complete the pagewalk
system.gpu.shader_mmu.pagewalkLatency::7            0      0.00%    100.00% # Latency to complete the pagewalk
system.gpu.shader_mmu.pagewalkLatency::8            0      0.00%    100.00% # Latency to complete the pagewalk
system.gpu.shader_mmu.pagewalkLatency::9            0      0.00%    100.00% # Latency to complete the pagewalk
system.gpu.shader_mmu.pagewalkLatency::10            0      0.00%    100.00% # Latency to complete the pagewalk
system.gpu.shader_mmu.pagewalkLatency::11            0      0.00%    100.00% # Latency to complete the pagewalk
system.gpu.shader_mmu.pagewalkLatency::12            0      0.00%    100.00% # Latency to complete the pagewalk
system.gpu.shader_mmu.pagewalkLatency::13            0      0.00%    100.00% # Latency to complete the pagewalk
system.gpu.shader_mmu.pagewalkLatency::14            0      0.00%    100.00% # Latency to complete the pagewalk
system.gpu.shader_mmu.pagewalkLatency::15            0      0.00%    100.00% # Latency to complete the pagewalk
system.gpu.shader_mmu.pagewalkLatency::16            0      0.00%    100.00% # Latency to complete the pagewalk
system.gpu.shader_mmu.pagewalkLatency::17            0      0.00%    100.00% # Latency to complete the pagewalk
system.gpu.shader_mmu.pagewalkLatency::18            0      0.00%    100.00% # Latency to complete the pagewalk
system.gpu.shader_mmu.pagewalkLatency::19            0      0.00%    100.00% # Latency to complete the pagewalk
system.gpu.shader_mmu.pagewalkLatency::20            0      0.00%    100.00% # Latency to complete the pagewalk
system.gpu.shader_mmu.pagewalkLatency::21            0      0.00%    100.00% # Latency to complete the pagewalk
system.gpu.shader_mmu.pagewalkLatency::22            0      0.00%    100.00% # Latency to complete the pagewalk
system.gpu.shader_mmu.pagewalkLatency::23            0      0.00%    100.00% # Latency to complete the pagewalk
system.gpu.shader_mmu.pagewalkLatency::24            0      0.00%    100.00% # Latency to complete the pagewalk
system.gpu.shader_mmu.pagewalkLatency::25            0      0.00%    100.00% # Latency to complete the pagewalk
system.gpu.shader_mmu.pagewalkLatency::26            0      0.00%    100.00% # Latency to complete the pagewalk
system.gpu.shader_mmu.pagewalkLatency::27            0      0.00%    100.00% # Latency to complete the pagewalk
system.gpu.shader_mmu.pagewalkLatency::28            0      0.00%    100.00% # Latency to complete the pagewalk
system.gpu.shader_mmu.pagewalkLatency::29            0      0.00%    100.00% # Latency to complete the pagewalk
system.gpu.shader_mmu.pagewalkLatency::30            0      0.00%    100.00% # Latency to complete the pagewalk
system.gpu.shader_mmu.pagewalkLatency::31            0      0.00%    100.00% # Latency to complete the pagewalk
system.gpu.shader_mmu.pagewalkLatency::total            9                       # Latency to complete the pagewalk
system.gpu.kernels_started                          1                       # Number of kernels started
system.gpu.kernels_completed                        1                       # Number of kernels completed
system.gpu.ce.device_dtb.hits                       0                       # Number of hits in this TLB
system.gpu.ce.device_dtb.misses                     0                       # Number of misses in this TLB
system.gpu.ce.device_dtb.hitRate                  nan                       # Hit rate for this TLB
system.gpu.ce.host_dtb.hits                        18                       # Number of hits in this TLB
system.gpu.ce.host_dtb.misses                       9                       # Number of misses in this TLB
system.gpu.ce.host_dtb.hitRate               0.666667                       # Hit rate for this TLB
system.gpu.ce.numOperations                         3                       # Number of copy/memset operations
system.gpu.ce.opBytesRead                        3072                       # Number of copy bytes read
system.gpu.ce.opBytesWritten                     3072                       # Number of copy/memset bytes written
system.gpu.ce.opTimeTicks                    15395968                       # Total time spent in copy/memset operations
system.gpu.shader_cores0.itb.hits                   0                       # Number of hits in this TLB
system.gpu.shader_cores0.itb.misses                 0                       # Number of misses in this TLB
system.gpu.shader_cores0.itb.hitRate              nan                       # Hit rate for this TLB
system.gpu.shader_cores0.local_loads                0                       # Number of loads from local space
system.gpu.shader_cores0.local_stores               0                       # Number of stores to local space
system.gpu.shader_cores0.shared_loads             287                       # Number of loads from shared space
system.gpu.shader_cores0.shared_stores            138                       # Number of stores to shared space
system.gpu.shader_cores0.param_kernel_loads         3128                       # Number of loads from kernel parameter space
system.gpu.shader_cores0.param_local_loads            0                       # Number of loads from local parameter space
system.gpu.shader_cores0.param_local_stores            0                       # Number of stores to local parameter space
system.gpu.shader_cores0.const_loads                0                       # Number of loads from constant space
system.gpu.shader_cores0.tex_loads                  0                       # Number of loads from texture space
system.gpu.shader_cores0.global_loads              72                       # Number of loads from global space
system.gpu.shader_cores0.global_stores             16                       # Number of stores to global space
system.gpu.shader_cores0.surf_loads                 0                       # Number of loads from surface space
system.gpu.shader_cores0.generic_loads              0                       # Number of loads from generic spaces (global, shared, local)
system.gpu.shader_cores0.generic_stores             0                       # Number of stores to generic spaces (global, shared, local)
system.gpu.shader_cores0.inst_cache_requests           16                       # Number of instruction cache requests sent
system.gpu.shader_cores0.inst_cache_retries            0                       # Number of instruction cache retries
system.gpu.shader_cores0.inst_counts::0             0                       # Inst counts: 1: ALU, 2: MAD, 3: CTRL, 4: SFU, 5: MEM, 6: TEX, 7: NOP
system.gpu.shader_cores0.inst_counts::1         25726                       # Inst counts: 1: ALU, 2: MAD, 3: CTRL, 4: SFU, 5: MEM, 6: TEX, 7: NOP
system.gpu.shader_cores0.inst_counts::2           123                       # Inst counts: 1: ALU, 2: MAD, 3: CTRL, 4: SFU, 5: MEM, 6: TEX, 7: NOP
system.gpu.shader_cores0.inst_counts::3          2954                       # Inst counts: 1: ALU, 2: MAD, 3: CTRL, 4: SFU, 5: MEM, 6: TEX, 7: NOP
system.gpu.shader_cores0.inst_counts::4           768                       # Inst counts: 1: ALU, 2: MAD, 3: CTRL, 4: SFU, 5: MEM, 6: TEX, 7: NOP
system.gpu.shader_cores0.inst_counts::5          3641                       # Inst counts: 1: ALU, 2: MAD, 3: CTRL, 4: SFU, 5: MEM, 6: TEX, 7: NOP
system.gpu.shader_cores0.inst_counts::6             0                       # Inst counts: 1: ALU, 2: MAD, 3: CTRL, 4: SFU, 5: MEM, 6: TEX, 7: NOP
system.gpu.shader_cores0.inst_counts::7             0                       # Inst counts: 1: ALU, 2: MAD, 3: CTRL, 4: SFU, 5: MEM, 6: TEX, 7: NOP
system.gpu.shader_cores0.activeCycles            3022                       # Number of cycles this shader was executing a CTA
system.gpu.shader_cores0.notStalledCycles         1105                       # Number of cycles this shader was actually executing at least one instance
system.gpu.shader_cores0.instInstances          33212                       # Total instructions executed by all PEs in the core
system.gpu.shader_cores0.instPerCycle       10.990073                       # Instruction instances per cycle
system.gpu.shader_cores0.kernels_completed            1                       # Number of kernels completed
system.gpu.shader_cores0.lsq.data_tlb.hits            0                       # Number of hits in this TLB
system.gpu.shader_cores0.lsq.data_tlb.misses            0                       # Number of misses in this TLB
system.gpu.shader_cores0.lsq.data_tlb.hitRate          nan                       # Hit rate for this TLB
system.gpu.shader_cores0.lsq.warpInstBufActive::samples      3681104                       # Histogram of number of active warp inst buffers at a given time
system.gpu.shader_cores0.lsq.warpInstBufActive::mean     0.144798                       # Histogram of number of active warp inst buffers at a given time
system.gpu.shader_cores0.lsq.warpInstBufActive::gmean          nan                       # Histogram of number of active warp inst buffers at a given time
system.gpu.shader_cores0.lsq.warpInstBufActive::stdev     0.520164                       # Histogram of number of active warp inst buffers at a given time
system.gpu.shader_cores0.lsq.warpInstBufActive::0      3356721     91.19%     91.19% # Histogram of number of active warp inst buffers at a given time
system.gpu.shader_cores0.lsq.warpInstBufActive::1       165764      4.50%     95.69% # Histogram of number of active warp inst buffers at a given time
system.gpu.shader_cores0.lsq.warpInstBufActive::2       117178      3.18%     98.87% # Histogram of number of active warp inst buffers at a given time
system.gpu.shader_cores0.lsq.warpInstBufActive::3        35725      0.97%     99.84% # Histogram of number of active warp inst buffers at a given time
system.gpu.shader_cores0.lsq.warpInstBufActive::4         2858      0.08%     99.92% # Histogram of number of active warp inst buffers at a given time
system.gpu.shader_cores0.lsq.warpInstBufActive::5         2858      0.08%    100.00% # Histogram of number of active warp inst buffers at a given time
system.gpu.shader_cores0.lsq.warpInstBufActive::6            0      0.00%    100.00% # Histogram of number of active warp inst buffers at a given time
system.gpu.shader_cores0.lsq.warpInstBufActive::7            0      0.00%    100.00% # Histogram of number of active warp inst buffers at a given time
system.gpu.shader_cores0.lsq.warpInstBufActive::8            0      0.00%    100.00% # Histogram of number of active warp inst buffers at a given time
system.gpu.shader_cores0.lsq.warpInstBufActive::9            0      0.00%    100.00% # Histogram of number of active warp inst buffers at a given time
system.gpu.shader_cores0.lsq.warpInstBufActive::10            0      0.00%    100.00% # Histogram of number of active warp inst buffers at a given time
system.gpu.shader_cores0.lsq.warpInstBufActive::11            0      0.00%    100.00% # Histogram of number of active warp inst buffers at a given time
system.gpu.shader_cores0.lsq.warpInstBufActive::12            0      0.00%    100.00% # Histogram of number of active warp inst buffers at a given time
system.gpu.shader_cores0.lsq.warpInstBufActive::13            0      0.00%    100.00% # Histogram of number of active warp inst buffers at a given time
system.gpu.shader_cores0.lsq.warpInstBufActive::14            0      0.00%    100.00% # Histogram of number of active warp inst buffers at a given time
system.gpu.shader_cores0.lsq.warpInstBufActive::15            0      0.00%    100.00% # Histogram of number of active warp inst buffers at a given time
system.gpu.shader_cores0.lsq.warpInstBufActive::16            0      0.00%    100.00% # Histogram of number of active warp inst buffers at a given time
system.gpu.shader_cores0.lsq.warpInstBufActive::17            0      0.00%    100.00% # Histogram of number of active warp inst buffers at a given time
system.gpu.shader_cores0.lsq.warpInstBufActive::18            0      0.00%    100.00% # Histogram of number of active warp inst buffers at a given time
system.gpu.shader_cores0.lsq.warpInstBufActive::19            0      0.00%    100.00% # Histogram of number of active warp inst buffers at a given time
system.gpu.shader_cores0.lsq.warpInstBufActive::20            0      0.00%    100.00% # Histogram of number of active warp inst buffers at a given time
system.gpu.shader_cores0.lsq.warpInstBufActive::21            0      0.00%    100.00% # Histogram of number of active warp inst buffers at a given time
system.gpu.shader_cores0.lsq.warpInstBufActive::22            0      0.00%    100.00% # Histogram of number of active warp inst buffers at a given time
[...]
system.ruby.L1Cache_Controller.Data::total            4                      
system.ruby.L1Cache_Controller.Data_Exclusive |         153     95.03%     95.03% |           0      0.00%     95.03% |           1      0.62%     95.65% |           5      3.11%     98.76% |           0      0.00%     98.76% |           2      1.24%    100.00% |           0      0.00%    100.00% |           0      0.00%    100.00%
system.ruby.L1Cache_Controller.Data_Exclusive::total          161                      
system.ruby.L1Cache_Controller.DataS_fromL1 |           6     12.77%     12.77% |           0      0.00%     12.77% |           3      6.38%     19.15% |           5     10.64%     29.79% |           5     10.64%     40.43% |           3      6.38%     46.81% |           0      0.00%     46.81% |          25     53.19%    100.00%
system.ruby.L1Cache_Controller.DataS_fromL1::total           47                      
system.ruby.L1Cache_Controller.Data_all_Acks |        1830     93.80%     93.80% |           0      0.00%     93.80% |          20      1.03%     94.82% |          26      1.33%     96.16% |          31      1.59%     97.74% |          19      0.97%     98.72% |           0      0.00%     98.72% |          25      1.28%    100.00%
system.ruby.L1Cache_Controller.Data_all_Acks::total         1951                      
system.ruby.L1Cache_Controller.Ack       |           6    100.00%    100.00% |           0      0.00%    100.00% |           0      0.00%    100.00% |           0      0.00%    100.00% |           0      0.00%    100.00% |           0      0.00%    100.00% |           0      0.00%    100.00% |           0      0.00%    100.00%
system.ruby.L1Cache_Controller.Ack::total            6                      
system.ruby.L1Cache_Controller.Ack_all   |           5     83.33%     83.33% |           0      0.00%     83.33% |           0      0.00%     83.33% |           0      0.00%     83.33% |           0      0.00%     83.33% |           0      0.00%     83.33% |           0      0.00%     83.33% |           1     16.67%    100.00%
system.ruby.L1Cache_Controller.Ack_all::total            6                      
system.ruby.L1Cache_Controller.WB_Ack    |          73     89.02%     89.02% |           0      0.00%     89.02% |           0      0.00%     89.02% |           0      0.00%     89.02% |           0      0.00%     89.02% |           0      0.00%     89.02% |           0      0.00%     89.02% |           9     10.98%    100.00%
system.ruby.L1Cache_Controller.WB_Ack::total           82                      
system.ruby.L1Cache_Controller.NP.Load   |         152     69.72%     69.72% |           0      0.00%     69.72% |           6      2.75%     72.48% |          14      6.42%     78.90% |          14      6.42%     85.32% |           6      2.75%     88.07% |           0      0.00%     88.07% |          26     11.93%    100.00%
system.ruby.L1Cache_Controller.NP.Load::total          218                      
system.ruby.L1Cache_Controller.NP.Ifetch |        1717     96.41%     96.41% |           0      0.00%     96.41% |          16      0.90%     97.30% |          16      0.90%     98.20% |          16      0.90%     99.10% |          16      0.90%    100.00% |           0      0.00%    100.00% |           0      0.00%    100.00%
system.ruby.L1Cache_Controller.NP.Ifetch::total         1781                      
system.ruby.L1Cache_Controller.NP.Store  |         113     73.38%     73.38% |           0      0.00%     73.38% |           2      1.30%     74.68% |           6      3.90%     78.57% |           6      3.90%     82.47% |           2      1.30%     83.77% |           0      0.00%     83.77% |          25     16.23%    100.00%
system.ruby.L1Cache_Controller.NP.Store::total          154                      
system.ruby.L1Cache_Controller.NP.Inv    |           1     33.33%     33.33% |           0      0.00%     33.33% |           0      0.00%     33.33% |           0      0.00%     33.33% |           0      0.00%     33.33% |           0      0.00%     33.33% |           0      0.00%     33.33% |           2     66.67%    100.00%
system.ruby.L1Cache_Controller.NP.Inv::total            3                      
system.ruby.L1Cache_Controller.I.Load    |           7    100.00%    100.00% |           0      0.00%    100.00% |           0      0.00%    100.00% |           0      0.00%    100.00% |           0      0.00%    100.00% |           0      0.00%    100.00% |           0      0.00%    100.00% |           0      0.00%    100.00%
system.ruby.L1Cache_Controller.I.Load::total            7                      
system.ruby.L1Cache_Controller.I.Store   |           3    100.00%    100.00% |           0      0.00%    100.00% |           0      0.00%    100.00% |           0      0.00%    100.00% |           0      0.00%    100.00% |           0      0.00%    100.00% |           0      0.00%    100.00% |           0      0.00%    100.00%
system.ruby.L1Cache_Controller.I.Store::total            3                      
system.ruby.L1Cache_Controller.S.Load    |         155    100.00%    100.00% |           0      0.00%    100.00% |           0      0.00%    100.00% |           0      0.00%    100.00% |           0      0.00%    100.00% |           0      0.00%    100.00% |           0      0.00%    100.00% |           0      0.00%    100.00%
system.ruby.L1Cache_Controller.S.Load::total          155                      
system.ruby.L1Cache_Controller.S.Ifetch  |     1771071    100.00%    100.00% |           0      0.00%    100.00% |           0      0.00%    100.00% |           0      0.00%    100.00% |           0      0.00%    100.00% |           0      0.00%    100.00% |           0      0.00%    100.00% |           0      0.00%    100.00%
system.ruby.L1Cache_Controller.S.Ifetch::total      1771071                      
system.ruby.L1Cache_Controller.S.Store   |           2    100.00%    100.00% |           0      0.00%    100.00% |           0      0.00%    100.00% |           0      0.00%    100.00% |           0      0.00%    100.00% |           0      0.00%    100.00% |           0      0.00%    100.00% |           0      0.00%    100.00%
system.ruby.L1Cache_Controller.S.Store::total            2                      
system.ruby.L1Cache_Controller.S.Inv     |           1     12.50%     12.50% |           0      0.00%     12.50% |           0      0.00%     12.50% |           2     25.00%     37.50% |           3     37.50%     75.00% |           0      0.00%     75.00% |           0      0.00%     75.00% |           2     25.00%    100.00%
system.ruby.L1Cache_Controller.S.Inv::total            8                      
system.ruby.L1Cache_Controller.S.L1_Replacement |        1469     97.74%     97.74% |           0      0.00%     97.74% |           0      0.00%     97.74% |           0      0.00%     97.74% |           0      0.00%     97.74% |           0      0.00%     97.74% |           0      0.00%     97.74% |          34      2.26%    100.00%
system.ruby.L1Cache_Controller.S.L1_Replacement::total         1503                      
system.ruby.L1Cache_Controller.E.Load    |       44081    100.00%    100.00% |           0      0.00%    100.00% |           0      0.00%    100.00% |           0      0.00%    100.00% |           0      0.00%    100.00% |           0      0.00%    100.00% |           0      0.00%    100.00% |           0      0.00%    100.00%
system.ruby.L1Cache_Controller.E.Load::total        44081                      
system.ruby.L1Cache_Controller.E.Store   |          40    100.00%    100.00% |           0      0.00%    100.00% |           0      0.00%    100.00% |           0      0.00%    100.00% |           0      0.00%    100.00% |           0      0.00%    100.00% |           0      0.00%    100.00% |           0      0.00%    100.00%
system.ruby.L1Cache_Controller.E.Store::total           40                      
system.ruby.L1Cache_Controller.E.L1_Replacement |          44    100.00%    100.00% |           0      0.00%    100.00% |           0      0.00%    100.00% |           0      0.00%    100.00% |           0      0.00%    100.00% |           0      0.00%    100.00% |           0      0.00%    100.00% |           0      0.00%    100.00%
system.ruby.L1Cache_Controller.E.L1_Replacement::total           44                      
system.ruby.L1Cache_Controller.E.Fwd_GETX |          17    100.00%    100.00% |           0      0.00%    100.00% |           0      0.00%    100.00% |           0      0.00%    100.00% |           0      0.00%    100.00% |           0      0.00%    100.00% |           0      0.00%    100.00% |           0      0.00%    100.00%
system.ruby.L1Cache_Controller.E.Fwd_GETX::total           17                      
system.ruby.L1Cache_Controller.E.Fwd_GETS |           0      0.00%      0.00% |           0      0.00%      0.00% |           1     12.50%     12.50% |           5     62.50%     75.00% |           0      0.00%     75.00% |           2     25.00%    100.00% |           0      0.00%    100.00% |           0      0.00%    100.00%
system.ruby.L1Cache_Controller.E.Fwd_GETS::total            8                      
system.ruby.L1Cache_Controller.M.Load    |      229747    100.00%    100.00% |           0      0.00%    100.00% |           0      0.00%    100.00% |           0      0.00%    100.00% |           0      0.00%    100.00% |           0      0.00%    100.00% |           0      0.00%    100.00% |           0      0.00%    100.00%
system.ruby.L1Cache_Controller.M.Load::total       229747                      
system.ruby.L1Cache_Controller.M.Store   |      198710     99.99%     99.99% |           0      0.00%     99.99% |           2      0.00%     99.99% |           6      0.00%    100.00% |           6      0.00%    100.00% |           2      0.00%    100.00% |           0      0.00%    100.00% |           0      0.00%    100.00%
system.ruby.L1Cache_Controller.M.Store::total       198726                      
system.ruby.L1Cache_Controller.M.Inv     |           1    100.00%    100.00% |           0      0.00%    100.00% |           0      0.00%    100.00% |           0      0.00%    100.00% |           0      0.00%    100.00% |           0      0.00%    100.00% |           0      0.00%    100.00% |           0      0.00%    100.00%
system.ruby.L1Cache_Controller.M.Inv::total            1                      
system.ruby.L1Cache_Controller.M.L1_Replacement |          29     76.32%     76.32% |           0      0.00%     76.32% |           0      0.00%     76.32% |           0      0.00%     76.32% |           0      0.00%     76.32% |           0      0.00%     76.32% |           0      0.00%     76.32% |           9     23.68%    100.00%
system.ruby.L1Cache_Controller.M.L1_Replacement::total           38                      
system.ruby.L1Cache_Controller.M.Fwd_GETX |          14     63.64%     63.64% |           0      0.00%     63.64% |           2      9.09%     72.73% |           5     22.73%     95.45% |           1      4.55%    100.00% |           0      0.00%    100.00% |           0      0.00%    100.00% |           0      0.00%    100.00%
system.ruby.L1Cache_Controller.M.Fwd_GETX::total           22                      
system.ruby.L1Cache_Controller.M.Fwd_GETS |          17     43.59%     43.59% |           0      0.00%     43.59% |           0      0.00%     43.59% |           1      2.56%     46.15% |           5     12.82%     58.97% |           2      5.13%     64.10% |           0      0.00%     64.10% |          14     35.90%    100.00%
system.ruby.L1Cache_Controller.M.Fwd_GETS::total           39                      
system.ruby.L1Cache_Controller.IS.L1_Replacement |           0      0.00%      0.00% |           0      0.00%      0.00% |           0      0.00%      0.00% |           0      0.00%      0.00% |           0      0.00%      0.00% |           0      0.00%      0.00% |           0      0.00%      0.00% |          17    100.00%    100.00%
system.ruby.L1Cache_Controller.IS.L1_Replacement::total           17                      
system.ruby.L1Cache_Controller.IS.Data_Exclusive |         153     95.03%     95.03% |           0      0.00%     95.03% |           1      0.62%     95.65% |           5      3.11%     98.76% |           0      0.00%     98.76% |           2      1.24%    100.00% |           0      0.00%    100.00% |           0      0.00%    100.00%
system.ruby.L1Cache_Controller.IS.Data_Exclusive::total          161                      
system.ruby.L1Cache_Controller.IS.DataS_fromL1 |           6     12.77%     12.77% |           0      0.00%     12.77% |           3      6.38%     19.15% |           5     10.64%     29.79% |           5     10.64%     40.43% |           3      6.38%     46.81% |           0      0.00%     46.81% |          25     53.19%    100.00%
system.ruby.L1Cache_Controller.IS.DataS_fromL1::total           47                      
system.ruby.L1Cache_Controller.IS.Data_all_Acks |        1717     95.49%     95.49% |           0      0.00%     95.49% |          18      1.00%     96.50% |          20      1.11%     97.61% |          25      1.39%     99.00% |          17      0.95%     99.94% |           0      0.00%     99.94% |           1      0.06%    100.00%
system.ruby.L1Cache_Controller.IS.Data_all_Acks::total         1798                      
system.ruby.L1Cache_Controller.IM.L1_Replacement |           0      0.00%      0.00% |           0      0.00%      0.00% |           0      0.00%      0.00% |           0      0.00%      0.00% |           0      0.00%      0.00% |           0      0.00%      0.00% |           0      0.00%      0.00% |           2    100.00%    100.00%
system.ruby.L1Cache_Controller.IM.L1_Replacement::total            2                      
system.ruby.L1Cache_Controller.IM.Data   |           3     75.00%     75.00% |           0      0.00%     75.00% |           0      0.00%     75.00% |           0      0.00%     75.00% |           0      0.00%     75.00% |           0      0.00%     75.00% |           0      0.00%     75.00% |           1     25.00%    100.00%
system.ruby.L1Cache_Controller.IM.Data::total            4                      
system.ruby.L1Cache_Controller.IM.Data_all_Acks |         113     73.86%     73.86% |           0      0.00%     73.86% |           2      1.31%     75.16% |           6      3.92%     79.08% |           6      3.92%     83.01% |           2      1.31%     84.31% |           0      0.00%     84.31% |          24     15.69%    100.00%
system.ruby.L1Cache_Controller.IM.Data_all_Acks::total          153                      
system.ruby.L1Cache_Controller.SM.Ack    |           6    100.00%    100.00% |           0      0.00%    100.00% |           0      0.00%    100.00% |           0      0.00%    100.00% |           0      0.00%    100.00% |           0      0.00%    100.00% |           0      0.00%    100.00% |           0      0.00%    100.00%
system.ruby.L1Cache_Controller.SM.Ack::total            6                      
system.ruby.L1Cache_Controller.SM.Ack_all |           5     83.33%     83.33% |           0      0.00%     83.33% |           0      0.00%     83.33% |           0      0.00%     83.33% |           0      0.00%     83.33% |           0      0.00%     83.33% |           0      0.00%     83.33% |           1     16.67%    100.00%
system.ruby.L1Cache_Controller.SM.Ack_all::total            6                      
system.ruby.L1Cache_Controller.M_I.Ifetch |           2    100.00%    100.00% |           0      0.00%    100.00% |           0      0.00%    100.00% |           0      0.00%    100.00% |           0      0.00%    100.00% |           0      0.00%    100.00% |           0      0.00%    100.00% |           0      0.00%    100.00%
system.ruby.L1Cache_Controller.M_I.Ifetch::total            2                      
system.ruby.L1Cache_Controller.M_I.WB_Ack |          73     89.02%     89.02% |           0      0.00%     89.02% |           0      0.00%     89.02% |           0      0.00%     89.02% |           0      0.00%     89.02% |           0      0.00%     89.02% |           0      0.00%     89.02% |           9     10.98%    100.00%
system.ruby.L1Cache_Controller.M_I.WB_Ack::total           82                      
system.ruby.L2Cache_Controller.L1_GET_INSTR         1781      0.00%      0.00%
system.ruby.L2Cache_Controller.L1_GETS            237      0.00%      0.00%
system.ruby.L2Cache_Controller.L1_GETX            162      0.00%      0.00%
system.ruby.L2Cache_Controller.L1_UPGRADE            2      0.00%      0.00%
system.ruby.L2Cache_Controller.L1_PUTX             82      0.00%      0.00%
system.ruby.L2Cache_Controller.L2_Replacement_clean            2      0.00%      0.00%
system.ruby.L2Cache_Controller.Mem_Data           856      0.00%      0.00%
system.ruby.L2Cache_Controller.Mem_Ack              2      0.00%      0.00%
system.ruby.L2Cache_Controller.WB_Data             40      0.00%      0.00%
system.ruby.L2Cache_Controller.WB_Data_clean            8      0.00%      0.00%
system.ruby.L2Cache_Controller.Ack_all              1      0.00%      0.00%
system.ruby.L2Cache_Controller.Unblock             47      0.00%      0.00%
system.ruby.L2Cache_Controller.Exclusive_Unblock          320      0.00%      0.00%
system.ruby.L2Cache_Controller.NP.L1_GET_INSTR          614      0.00%      0.00%
system.ruby.L2Cache_Controller.NP.L1_GETS          131      0.00%      0.00%
system.ruby.L2Cache_Controller.NP.L1_GETX          111      0.00%      0.00%
system.ruby.L2Cache_Controller.SS.L1_GET_INSTR         1127      0.00%      0.00%
system.ruby.L2Cache_Controller.SS.L1_GETS           17      0.00%      0.00%
system.ruby.L2Cache_Controller.SS.L1_GETX            4      0.00%      0.00%
system.ruby.L2Cache_Controller.SS.L1_UPGRADE            2      0.00%      0.00%
system.ruby.L2Cache_Controller.SS.L2_Replacement_clean            1      0.00%      0.00%
system.ruby.L2Cache_Controller.M.L1_GET_INSTR            4      0.00%      0.00%
system.ruby.L2Cache_Controller.M.L1_GETS           30      0.00%      0.00%
system.ruby.L2Cache_Controller.M.L1_GETX            3      0.00%      0.00%
system.ruby.L2Cache_Controller.MT.L1_GETS           47      0.00%      0.00%
system.ruby.L2Cache_Controller.MT.L1_GETX           39      0.00%      0.00%
system.ruby.L2Cache_Controller.MT.L1_PUTX           82      0.00%      0.00%
system.ruby.L2Cache_Controller.MT.L2_Replacement_clean            1      0.00%      0.00%
system.ruby.L2Cache_Controller.M_I.Mem_Ack            2      0.00%      0.00%
system.ruby.L2Cache_Controller.MCT_I.WB_Data            1      0.00%      0.00%
system.ruby.L2Cache_Controller.I_I.Ack_all            1      0.00%      0.00%
system.ruby.L2Cache_Controller.ISS.Mem_Data          131      0.00%      0.00%
system.ruby.L2Cache_Controller.IS.L1_GET_INSTR           36      0.00%      0.00%
system.ruby.L2Cache_Controller.IS.Mem_Data          614      0.00%      0.00%
system.ruby.L2Cache_Controller.IM.Mem_Data          111      0.00%      0.00%
system.ruby.L2Cache_Controller.SS_MB.Exclusive_Unblock            6      0.00%      0.00%
system.ruby.L2Cache_Controller.MT_MB.L1_GETS            5      0.00%      0.00%
system.ruby.L2Cache_Controller.MT_MB.L1_GETX            5      0.00%      0.00%
system.ruby.L2Cache_Controller.MT_MB.Exclusive_Unblock          314      0.00%      0.00%
system.ruby.L2Cache_Controller.MT_IIB.L1_GETS            7      0.00%      0.00%
system.ruby.L2Cache_Controller.MT_IIB.WB_Data            1      0.00%      0.00%
system.ruby.L2Cache_Controller.MT_IIB.Unblock           46      0.00%      0.00%
system.ruby.L2Cache_Controller.MT_IB.WB_Data           38      0.00%      0.00%
system.ruby.L2Cache_Controller.MT_IB.WB_Data_clean            8      0.00%      0.00%
system.ruby.L2Cache_Controller.MT_SB.Unblock            1      0.00%      0.00%

---------- End Simulation Statistics   ----------
