
---------- Begin Simulation Statistics ----------
sim_seconds                                  0.000078                       # Number of seconds simulated
sim_ticks                                    77775000                       # Number of ticks simulated
final_tick                                   77775000                       # Number of ticks from beginning of simulation (restored from checkpoints and never reset)
sim_freq                                 1000000000000                       # Frequency of simulated ticks
host_inst_rate                                  96431                       # Simulator instruction rate (inst/s)
host_op_rate                                   190848                       # Simulator op (including micro ops) rate (op/s)
host_tick_rate                              303695177                       # Simulator tick rate (ticks/s)
host_mem_usage                                4493576                       # Number of bytes of host memory used
host_seconds                                     0.26                       # Real time elapsed on the host
sim_insts                                       24692                       # Number of instructions simulated
sim_ops                                         48872                       # Number of ops (including micro ops) simulated
system.voltage_domain.voltage                       1                       # Voltage in Volts
system.clk_domain.clock                          1000                       # Clock period in ticks
system.mem_ctrls.bytes_read::ruby.dir_cntrl0        64256                       # Number of bytes read from this memory
system.mem_ctrls.bytes_read::total              64256                       # Number of bytes read from this memory
system.mem_ctrls.num_reads::ruby.dir_cntrl0          502                       # Number of read requests responded to by this memory
system.mem_ctrls.num_reads::total                 502                       # Number of read requests responded to by this memory
system.mem_ctrls.bw_read::ruby.dir_cntrl0    826178078                       # Total read bandwidth from this memory (bytes/s)
system.mem_ctrls.bw_read::total             826178078                       # Total read bandwidth from this memory (bytes/s)
system.mem_ctrls.bw_total::ruby.dir_cntrl0    826178078                       # Total bandwidth to/from this memory (bytes/s)
system.mem_ctrls.bw_total::total            826178078                       # Total bandwidth to/from this memory (bytes/s)
system.mem_ctrls.readReqs                         502                       # Number of read requests accepted
system.mem_ctrls.writeReqs                          0                       # Number of write requests accepted
system.mem_ctrls.readBursts                      1004                       # Number of DRAM read bursts, including those serviced by the write queue
system.mem_ctrls.writeBursts                        0                       # Number of DRAM write bursts, including those merged in the write queue
system.mem_ctrls.bytesReadDRAM                  64256                       # Total number of bytes read from DRAM
system.mem_ctrls.bytesReadWrQ                       0                       # Total number of bytes read from write queue
system.mem_ctrls.bytesWritten                       0                       # Total number of bytes written to DRAM
system.mem_ctrls.bytesReadSys                   64256                       # Total read bytes from the system interface side
system.mem_ctrls.bytesWrittenSys                    0                       # Total written bytes from the system interface side
system.mem_ctrls.servicedByWrQ                      0                       # Number of DRAM read bursts serviced by the write queue
system.mem_ctrls.mergedWrBursts                     0                       # Number of DRAM write bursts merged with an existing one
system.mem_ctrls.neitherReadNorWriteReqs            0                       # Number of requests that are neither read nor write
system.mem_ctrls.perBankRdBursts::0               226                       # Per bank write bursts
system.mem_ctrls.perBankRdBursts::1                98                       # Per bank write bursts
system.mem_ctrls.perBankRdBursts::2               110                       # Per bank write bursts
system.mem_ctrls.perBankRdBursts::3                78                       # Per bank write bursts
system.mem_ctrls.perBankRdBursts::4                50                       # Per bank write bursts
system.mem_ctrls.perBankRdBursts::5                34                       # Per bank write bursts
system.mem_ctrls.perBankRdBursts::6               138                       # Per bank write bursts
system.mem_ctrls.perBankRdBursts::7                94                       # Per bank write bursts
system.mem_ctrls.perBankRdBursts::8                34                       # Per bank write bursts
system.mem_ctrls.perBankRdBursts::9                 2                       # Per bank write bursts
system.mem_ctrls.perBankRdBursts::10               10                       # Per bank write bursts
system.mem_ctrls.perBankRdBursts::11               12                       # Per bank write bursts
system.mem_ctrls.perBankRdBursts::12               16                       # Per bank write bursts
system.mem_ctrls.perBankRdBursts::13               34                       # Per bank write bursts
system.mem_ctrls.perBankRdBursts::14               16                       # Per bank write bursts
system.mem_ctrls.perBankRdBursts::15               52                       # Per bank write bursts
system.mem_ctrls.perBankWrBursts::0                 0                       # Per bank write bursts
system.mem_ctrls.perBankWrBursts::1                 0                       # Per bank write bursts
system.mem_ctrls.perBankWrBursts::2                 0                       # Per bank write bursts
system.mem_ctrls.perBankWrBursts::3                 0                       # Per bank write bursts
system.mem_ctrls.perBankWrBursts::4                 0                       # Per bank write bursts
system.mem_ctrls.perBankWrBursts::5                 0                       # Per bank write bursts
system.mem_ctrls.perBankWrBursts::6                 0                       # Per bank write bursts
system.mem_ctrls.perBankWrBursts::7                 0                       # Per bank write bursts
system.mem_ctrls.perBankWrBursts::8                 0                       # Per bank write bursts
system.mem_ctrls.perBankWrBursts::9                 0                       # Per bank write bursts
system.mem_ctrls.perBankWrBursts::10                0                       # Per bank write bursts
system.mem_ctrls.perBankWrBursts::11                0                       # Per bank write bursts
system.mem_ctrls.perBankWrBursts::12                0                       # Per bank write bursts
system.mem_ctrls.perBankWrBursts::13                0                       # Per bank write bursts
system.mem_ctrls.perBankWrBursts::14                0                       # Per bank write bursts
system.mem_ctrls.perBankWrBursts::15                0                       # Per bank write bursts
system.mem_ctrls.numRdRetry                         0                       # Number of times read queue was full causing retry
system.mem_ctrls.numWrRetry                         0                       # Number of times write queue was full causing retry
system.mem_ctrls.totGap                      77712000                       # Total gap between requests
system.mem_ctrls.readPktSize::0                     0                       # Read request sizes (log2)
system.mem_ctrls.readPktSize::1                     0                       # Read request sizes (log2)
system.mem_ctrls.readPktSize::2                     0                       # Read request sizes (log2)
system.mem_ctrls.readPktSize::3                     0                       # Read request sizes (log2)
system.mem_ctrls.readPktSize::4                     0                       # Read request sizes (log2)
system.mem_ctrls.readPktSize::5                     0                       # Read request sizes (log2)
system.mem_ctrls.readPktSize::6                  1004                       # Read request sizes (log2)
system.mem_ctrls.writePktSize::0                    0                       # Write request sizes (log2)
system.mem_ctrls.writePktSize::1                    0                       # Write request sizes (log2)
system.mem_ctrls.writePktSize::2                    0                       # Write request sizes (log2)
system.mem_ctrls.writePktSize::3                    0                       # Write request sizes (log2)
system.mem_ctrls.writePktSize::4                    0                       # Write request sizes (log2)
system.mem_ctrls.writePktSize::5                    0                       # Write request sizes (log2)
system.mem_ctrls.writePktSize::6                    0                       # Write request sizes (log2)
system.mem_ctrls.rdQLenPdf::0                     502                       # What read queue length does an incoming req see
system.mem_ctrls.rdQLenPdf::1                     502                       # What read queue length does an incoming req see
system.mem_ctrls.rdQLenPdf::2                       0                       # What read queue length does an incoming req see
system.mem_ctrls.rdQLenPdf::3                       0                       # What read queue length does an incoming req see
system.mem_ctrls.rdQLenPdf::4                       0                       # What read queue length does an incoming req see
system.mem_ctrls.rdQLenPdf::5                       0                       # What read queue length does an incoming req see
system.mem_ctrls.rdQLenPdf::6                       0                       # What read queue length does an incoming req see
system.mem_ctrls.rdQLenPdf::7                       0                       # What read queue length does an incoming req see
system.mem_ctrls.rdQLenPdf::8                       0                       # What read queue length does an incoming req see
system.mem_ctrls.rdQLenPdf::9                       0                       # What read queue length does an incoming req see
system.mem_ctrls.rdQLenPdf::10                      0                       # What read queue length does an incoming req see
system.mem_ctrls.rdQLenPdf::11                      0                       # What read queue length does an incoming req see
system.mem_ctrls.rdQLenPdf::12                      0                       # What read queue length does an incoming req see
system.mem_ctrls.rdQLenPdf::13                      0                       # What read queue length does an incoming req see
system.mem_ctrls.rdQLenPdf::14                      0                       # What read queue length does an incoming req see
system.mem_ctrls.rdQLenPdf::15                      0                       # What read queue length does an incoming req see
system.mem_ctrls.rdQLenPdf::16                      0                       # What read queue length does an incoming req see
system.mem_ctrls.rdQLenPdf::17                      0                       # What read queue length does an incoming req see
system.mem_ctrls.rdQLenPdf::18                      0                       # What read queue length does an incoming req see
system.mem_ctrls.rdQLenPdf::19                      0                       # What read queue length does an incoming req see
system.mem_ctrls.rdQLenPdf::20                      0                       # What read queue length does an incoming req see
system.mem_ctrls.rdQLenPdf::21                      0                       # What read queue length does an incoming req see
system.mem_ctrls.rdQLenPdf::22                      0                       # What read queue length does an incoming req see
system.mem_ctrls.rdQLenPdf::23                      0                       # What read queue length does an incoming req see
system.mem_ctrls.rdQLenPdf::24                      0                       # What read queue length does an incoming req see
system.mem_ctrls.rdQLenPdf::25                      0                       # What read queue length does an incoming req see
system.mem_ctrls.rdQLenPdf::26                      0                       # What read queue length does an incoming req see
system.mem_ctrls.rdQLenPdf::27                      0                       # What read queue length does an incoming req see
system.mem_ctrls.rdQLenPdf::28                      0                       # What read queue length does an incoming req see
system.mem_ctrls.rdQLenPdf::29                      0                       # What read queue length does an incoming req see
system.mem_ctrls.rdQLenPdf::30                      0                       # What read queue length does an incoming req see
system.mem_ctrls.rdQLenPdf::31                      0                       # What read queue length does an incoming req see
system.mem_ctrls.wrQLenPdf::0                       0                       # What write queue length does an incoming req see
system.mem_ctrls.wrQLenPdf::1                       0                       # What write queue length does an incoming req see
system.mem_ctrls.wrQLenPdf::2                       0                       # What write queue length does an incoming req see
system.mem_ctrls.wrQLenPdf::3                       0                       # What write queue length does an incoming req see
system.mem_ctrls.wrQLenPdf::4                       0                       # What write queue length does an incoming req see
system.mem_ctrls.wrQLenPdf::5                       0                       # What write queue length does an incoming req see
system.mem_ctrls.wrQLenPdf::6                       0                       # What write queue length does an incoming req see
system.mem_ctrls.wrQLenPdf::7                       0                       # What write queue length does an incoming req see
system.mem_ctrls.wrQLenPdf::8                       0                       # What write queue length does an incoming req see
system.mem_ctrls.wrQLenPdf::9                       0                       # What write queue length does an incoming req see
system.mem_ctrls.wrQLenPdf::10                      0                       # What write queue length does an incoming req see
system.mem_ctrls.wrQLenPdf::11                      0                       # What write queue length does an incoming req see
system.mem_ctrls.wrQLenPdf::12                      0                       # What write queue length does an incoming req see
system.mem_ctrls.wrQLenPdf::13                      0                       # What write queue length does an incoming req see
system.mem_ctrls.wrQLenPdf::14                      0                       # What write queue length does an incoming req see
system.mem_ctrls.wrQLenPdf::15                      0                       # What write queue length does an incoming req see
system.mem_ctrls.wrQLenPdf::16                      0                       # What write queue length does an incoming req see
system.mem_ctrls.wrQLenPdf::17                      0                       # What write queue length does an incoming req see
system.mem_ctrls.wrQLenPdf::18                      0                       # What write queue length does an incoming req see
system.mem_ctrls.wrQLenPdf::19                      0                       # What write queue length does an incoming req see
system.mem_ctrls.wrQLenPdf::20                      0                       # What write queue length does an incoming req see
system.mem_ctrls.wrQLenPdf::21                      0                       # What write queue length does an incoming req see
system.mem_ctrls.wrQLenPdf::22                      0                       # What write queue length does an incoming req see
system.mem_ctrls.wrQLenPdf::23                      0                       # What write queue length does an incoming req see
system.mem_ctrls.wrQLenPdf::24                      0                       # What write queue length does an incoming req see
system.mem_ctrls.wrQLenPdf::25                      0                       # What write queue length does an incoming req see
system.mem_ctrls.wrQLenPdf::26                      0                       # What write queue length does an incoming req see
system.mem_ctrls.wrQLenPdf::27                      0                       # What write queue length does an incoming req see
system.mem_ctrls.wrQLenPdf::28                      0                       # What write queue length does an incoming req see
system.mem_ctrls.wrQLenPdf::29                      0                       # What write queue length does an incoming req see
system.mem_ctrls.wrQLenPdf::30                      0                       # What write queue length does an incoming req see
system.mem_ctrls.wrQLenPdf::31                      0                       # What write queue length does an incoming req see
system.mem_ctrls.wrQLenPdf::32                      0                       # What write queue length does an incoming req see
system.mem_ctrls.wrQLenPdf::33                      0                       # What write queue length does an incoming req see
system.mem_ctrls.wrQLenPdf::34                      0                       # What write queue length does an incoming req see
system.mem_ctrls.wrQLenPdf::35                      0                       # What write queue length does an incoming req see
system.mem_ctrls.wrQLenPdf::36                      0                       # What write queue length does an incoming req see
system.mem_ctrls.wrQLenPdf::37                      0                       # What write queue length does an incoming req see
system.mem_ctrls.wrQLenPdf::38                      0                       # What write queue length does an incoming req see
system.mem_ctrls.wrQLenPdf::39                      0                       # What write queue length does an incoming req see
system.mem_ctrls.wrQLenPdf::40                      0                       # What write queue length does an incoming req see
system.mem_ctrls.wrQLenPdf::41                      0                       # What write queue length does an incoming req see
system.mem_ctrls.wrQLenPdf::42                      0                       # What write queue length does an incoming req see
system.mem_ctrls.wrQLenPdf::43                      0                       # What write queue length does an incoming req see
system.mem_ctrls.wrQLenPdf::44                      0                       # What write queue length does an incoming req see
system.mem_ctrls.wrQLenPdf::45                      0                       # What write queue length does an incoming req see
system.mem_ctrls.wrQLenPdf::46                      0                       # What write queue length does an incoming req see
system.mem_ctrls.wrQLenPdf::47                      0                       # What write queue length does an incoming req see
system.mem_ctrls.wrQLenPdf::48                      0                       # What write queue length does an incoming req see
system.mem_ctrls.wrQLenPdf::49                      0                       # What write queue length does an incoming req see
system.mem_ctrls.wrQLenPdf::50                      0                       # What write queue length does an incoming req see
system.mem_ctrls.wrQLenPdf::51                      0                       # What write queue length does an incoming req see
system.mem_ctrls.wrQLenPdf::52                      0                       # What write queue length does an incoming req see
system.mem_ctrls.wrQLenPdf::53                      0                       # What write queue length does an incoming req see
system.mem_ctrls.wrQLenPdf::54                      0                       # What write queue length does an incoming req see
system.mem_ctrls.wrQLenPdf::55                      0                       # What write queue length does an incoming req see
system.mem_ctrls.wrQLenPdf::56                      0                       # What write queue length does an incoming req see
system.mem_ctrls.wrQLenPdf::57                      0                       # What write queue length does an incoming req see
system.mem_ctrls.wrQLenPdf::58                      0                       # What write queue length does an incoming req see
system.mem_ctrls.wrQLenPdf::59                      0                       # What write queue length does an incoming req see
system.mem_ctrls.wrQLenPdf::60                      0                       # What write queue length does an incoming req see
system.mem_ctrls.wrQLenPdf::61                      0                       # What write queue length does an incoming req see
system.mem_ctrls.wrQLenPdf::62                      0                       # What write queue length does an incoming req see
system.mem_ctrls.wrQLenPdf::63                      0                       # What write queue length does an incoming req see
system.mem_ctrls.bytesPerActivate::samples          191                       # Bytes accessed per row activation
system.mem_ctrls.bytesPerActivate::mean    327.036649                       # Bytes accessed per row activation
system.mem_ctrls.bytesPerActivate::gmean   241.627000                       # Bytes accessed per row activation
system.mem_ctrls.bytesPerActivate::stdev   283.974339                       # Bytes accessed per row activation
system.mem_ctrls.bytesPerActivate::128-255           96     50.26%     50.26% # Bytes accessed per row activation
system.mem_ctrls.bytesPerActivate::256-383           32     16.75%     67.02% # Bytes accessed per row activation
system.mem_ctrls.bytesPerActivate::384-511           19      9.95%     76.96% # Bytes accessed per row activation
system.mem_ctrls.bytesPerActivate::512-639           12      6.28%     83.25% # Bytes accessed per row activation
system.mem_ctrls.bytesPerActivate::640-767            5      2.62%     85.86% # Bytes accessed per row activation
system.mem_ctrls.bytesPerActivate::768-895            6      3.14%     89.01% # Bytes accessed per row activation
system.mem_ctrls.bytesPerActivate::896-1023            6      3.14%     92.15% # Bytes accessed per row activation
system.mem_ctrls.bytesPerActivate::1024-1151           15      7.85%    100.00% # Bytes accessed per row activation
system.mem_ctrls.bytesPerActivate::total          191                       # Bytes accessed per row activation
system.mem_ctrls.totQLat                     12826000                       # Total ticks spent queuing
system.mem_ctrls.totMemAccLat                31651000                       # Total ticks spent from burst creation until serviced by the DRAM
system.mem_ctrls.totBusLat                    5020000                       # Total ticks spent in databus transfers
system.mem_ctrls.avgQLat                     12774.90                       # Average queueing delay per DRAM burst
system.mem_ctrls.avgBusLat                    5000.00                       # Average bus latency per DRAM burst
system.mem_ctrls.avgMemAccLat                31524.90                       # Average memory access latency per DRAM burst
system.mem_ctrls.avgRdBW                       826.18                       # Average DRAM read bandwidth in MiByte/s
system.mem_ctrls.avgWrBW                         0.00                       # Average achieved write bandwidth in MiByte/s
system.mem_ctrls.avgRdBWSys                    826.18                       # Average system read bandwidth in MiByte/s
system.mem_ctrls.avgWrBWSys                      0.00                       # Average system write bandwidth in MiByte/s
system.mem_ctrls.peakBW                      12800.00                       # Theoretical peak bandwidth in MiByte/s
system.mem_ctrls.busUtil                         6.45                       # Data bus utilization in percentage
system.mem_ctrls.busUtilRead                     6.45                       # Data bus utilization in percentage for reads
system.mem_ctrls.busUtilWrite                    0.00                       # Data bus utilization in percentage for writes
system.mem_ctrls.avgRdQLen                       2.00                       # Average read queue length when enqueuing
system.mem_ctrls.avgWrQLen                       0.00                       # Average write queue length when enqueuing
system.mem_ctrls.readRowHits                      806                       # Number of row buffer hits during reads
system.mem_ctrls.writeRowHits                       0                       # Number of row buffer hits during writes
system.mem_ctrls.readRowHitRate                 80.28                       # Row buffer hit rate for reads
system.mem_ctrls.writeRowHitRate                  nan                       # Row buffer hit rate for writes
system.mem_ctrls.avgGap                     154804.78                       # Average gap between requests
system.mem_ctrls.pageHitRate                    80.28                       # Row buffer hit rate, read and write combined
system.mem_ctrls_0.actEnergy                  1081080                       # Energy for activate commands per rank (pJ)
system.mem_ctrls_0.preEnergy                   589875                       # Energy for precharge commands per rank (pJ)
system.mem_ctrls_0.readEnergy                 5787600                       # Energy for read commands per rank (pJ)
system.mem_ctrls_0.writeEnergy                      0                       # Energy for write commands per rank (pJ)
system.mem_ctrls_0.refreshEnergy              4577040                       # Energy for refresh commands per rank (pJ)
system.mem_ctrls_0.actBackEnergy             47397780                       # Energy for active background per rank (pJ)
system.mem_ctrls_0.preBackEnergy               624750                       # Energy for precharge background per rank (pJ)
system.mem_ctrls_0.totalEnergy               60058125                       # Total energy per rank (pJ)
system.mem_ctrls_0.averagePower            853.871581                       # Core power per rank (mW)
system.mem_ctrls_0.memoryStateTime::IDLE       722250                       # Time in different power states
system.mem_ctrls_0.memoryStateTime::REF       2340000                       # Time in different power states
system.mem_ctrls_0.memoryStateTime::PRE_PDN            0                       # Time in different power states
system.mem_ctrls_0.memoryStateTime::ACT      67287750                       # Time in different power states
system.mem_ctrls_0.memoryStateTime::ACT_PDN            0                       # Time in different power states
system.mem_ctrls_1.actEnergy                   279720                       # Energy for activate commands per rank (pJ)
system.mem_ctrls_1.preEnergy                   152625                       # Energy for precharge commands per rank (pJ)
system.mem_ctrls_1.readEnergy                 1310400                       # Energy for read commands per rank (pJ)
system.mem_ctrls_1.writeEnergy                      0                       # Energy for write commands per rank (pJ)
system.mem_ctrls_1.refreshEnergy              4577040                       # Energy for refresh commands per rank (pJ)
system.mem_ctrls_1.actBackEnergy             33639975                       # Energy for active background per rank (pJ)
system.mem_ctrls_1.preBackEnergy             12693000                       # Energy for precharge background per rank (pJ)
system.mem_ctrls_1.totalEnergy               52652760                       # Total energy per rank (pJ)
system.mem_ctrls_1.averagePower            748.586397                       # Core power per rank (mW)
system.mem_ctrls_1.memoryStateTime::IDLE     21046250                       # Time in different power states
system.mem_ctrls_1.memoryStateTime::REF       2340000                       # Time in different power states
system.mem_ctrls_1.memoryStateTime::PRE_PDN            0                       # Time in different power states
system.mem_ctrls_1.memoryStateTime::ACT      47091250                       # Time in different power states
system.mem_ctrls_1.memoryStateTime::ACT_PDN            0                       # Time in different power states
system.ruby_clk_domain.clock                      500                       # Clock period in ticks
system.ruby.phys_mem.bytes_read::cpu0.inst       259896                       # Number of bytes read from this memory
system.ruby.phys_mem.bytes_read::cpu0.data        34973                       # Number of bytes read from this memory
system.ruby.phys_mem.bytes_read::total         294869                       # Number of bytes read from this memory
system.ruby.phys_mem.bytes_inst_read::cpu0.inst       259896                       # Number of instructions bytes read from this memory
system.ruby.phys_mem.bytes_inst_read::total       259896                       # Number of instructions bytes read from this memory
system.ruby.phys_mem.bytes_written::cpu0.data        27354                       # Number of bytes written to this memory
system.ruby.phys_mem.bytes_written::total        27354                       # Number of bytes written to this memory
system.ruby.phys_mem.num_reads::cpu0.inst        32487                       # Number of read requests responded to by this memory
system.ruby.phys_mem.num_reads::cpu0.data         5733                       # Number of read requests responded to by this memory
system.ruby.phys_mem.num_reads::total           38220                       # Number of read requests responded to by this memory
system.ruby.phys_mem.num_writes::cpu0.data         4120                       # Number of write requests responded to by this memory
system.ruby.phys_mem.num_writes::total           4120                       # Number of write requests responded to by this memory
system.ruby.phys_mem.bw_read::cpu0.inst    3341639344                       # Total read bandwidth from this memory (bytes/s)
system.ruby.phys_mem.bw_read::cpu0.data     449668917                       # Total read bandwidth from this memory (bytes/s)
system.ruby.phys_mem.bw_read::total        3791308261                       # Total read bandwidth from this memory (bytes/s)
system.ruby.phys_mem.bw_inst_read::cpu0.inst   3341639344                       # Instruction read bandwidth from this memory (bytes/s)
system.ruby.phys_mem.bw_inst_read::total   3341639344                       # Instruction read bandwidth from this memory (bytes/s)
system.ruby.phys_mem.bw_write::cpu0.data    351706847                       # Write bandwidth from this memory (bytes/s)
system.ruby.phys_mem.bw_write::total        351706847                       # Write bandwidth from this memory (bytes/s)
system.ruby.phys_mem.bw_total::cpu0.inst   3341639344                       # Total bandwidth to/from this memory (bytes/s)
system.ruby.phys_mem.bw_total::cpu0.data    801375763                       # Total bandwidth to/from this memory (bytes/s)
system.ruby.phys_mem.bw_total::total       4143015108                       # Total bandwidth to/from this memory (bytes/s)
system.cpu_voltage_domain.voltage                   1                       # Voltage in Volts
system.cpu_clk_domain.clock                       500                       # Clock period in ticks
system.cpu0.apic_clk_domain.clock                8000                       # Clock period in ticks
system.cpu0.workload.num_syscalls                  20                       # Number of system calls
system.cpu0.numCycles                          155550                       # number of cpu cycles simulated
system.cpu0.numWorkItemsStarted                     0                       # number of work items this cpu started
system.cpu0.numWorkItemsCompleted                   0                       # number of work items this cpu completed
system.cpu0.committedInsts                      24692                       # Number of instructions committed
system.cpu0.committedOps                        48872                       # Number of ops (including micro ops) committed
system.cpu0.num_int_alu_accesses                47818                       # Number of integer alu accesses
system.cpu0.num_fp_alu_accesses                  1396                       # Number of float alu accesses
system.cpu0.num_func_calls                        875                       # number of times a function call or return occured
system.cpu0.num_conditional_control_insts         4305                       # number of instructions that are conditional controls
system.cpu0.num_int_insts                       47818                       # number of integer instructions
system.cpu0.num_fp_insts                         1396                       # number of float instructions
system.cpu0.num_int_register_reads              92807                       # number of times the integer registers were read
system.cpu0.num_int_register_writes             38197                       # number of times the integer registers were written
system.cpu0.num_fp_register_reads                2322                       # number of times the floating registers were read
system.cpu0.num_fp_register_writes               1048                       # number of times the floating registers were written
system.cpu0.num_cc_register_reads               28742                       # number of times the CC registers were read
system.cpu0.num_cc_register_writes              15450                       # number of times the CC registers were written
system.cpu0.num_mem_refs                         9850                       # number of memory refs
system.cpu0.num_load_insts                       5731                       # Number of load instructions
system.cpu0.num_store_insts                      4119                       # Number of store instructions
system.cpu0.num_idle_cycles                  0.002000                       # Number of idle cycles
system.cpu0.num_busy_cycles              155549.998000                       # Number of busy cycles
system.cpu0.not_idle_fraction                1.000000                       # Percentage of non-idle cycles
system.cpu0.idle_fraction                    0.000000                       # Percentage of idle cycles
system.cpu0.Branches                             5558                       # Number of branches fetched
system.cpu0.op_class::No_OpClass                  185      0.38%      0.38% # Class of executed instruction
system.cpu0.op_class::IntAlu                    37783     77.31%     77.69% # Class of executed instruction
system.cpu0.op_class::IntMult                      23      0.05%     77.74% # Class of executed instruction
system.cpu0.op_class::IntDiv                       91      0.19%     77.92% # Class of executed instruction
system.cpu0.op_class::FloatAdd                    940      1.92%     79.85% # Class of executed instruction
system.cpu0.op_class::FloatCmp                      0      0.00%     79.85% # Class of executed instruction
system.cpu0.op_class::FloatCvt                      0      0.00%     79.85% # Class of executed instruction
system.cpu0.op_class::FloatMult                     0      0.00%     79.85% # Class of executed instruction
system.cpu0.op_class::FloatDiv                      0      0.00%     79.85% # Class of executed instruction
system.cpu0.op_class::FloatSqrt                     0      0.00%     79.85% # Class of executed instruction
system.cpu0.op_class::SimdAdd                       0      0.00%     79.85% # Class of executed instruction
system.cpu0.op_class::SimdAddAcc                    0      0.00%     79.85% # Class of executed instruction
system.cpu0.op_class::SimdAlu                       0      0.00%     79.85% # Class of executed instruction
system.cpu0.op_class::SimdCmp                       0      0.00%     79.85% # Class of executed instruction
system.cpu0.op_class::SimdCvt                       0      0.00%     79.85% # Class of executed instruction
system.cpu0.op_class::SimdMisc                      0      0.00%     79.85% # Class of executed instruction
system.cpu0.op_class::SimdMult                      0      0.00%     79.85% # Class of executed instruction
system.cpu0.op_class::SimdMultAcc                   0      0.00%     79.85% # Class of executed instruction
system.cpu0.op_class::SimdShift                     0      0.00%     79.85% # Class of executed instruction
system.cpu0.op_class::SimdShiftAcc                  0      0.00%     79.85% # Class of executed instruction
system.cpu0.op_class::SimdSqrt                      0      0.00%     79.85% # Class of executed instruction
system.cpu0.op_class::SimdFloatAdd                  0      0.00%     79.85% # Class of executed instruction
system.cpu0.op_class::SimdFloatAlu                  0      0.00%     79.85% # Class of executed instruction
system.cpu0.op_class::SimdFloatCmp                  0      0.00%     79.85% # Class of executed instruction
system.cpu0.op_class::SimdFloatCvt                  0      0.00%     79.85% # Class of executed instruction
system.cpu0.op_class::SimdFloatDiv                  0      0.00%     79.85% # Class of executed instruction
system.cpu0.op_class::SimdFloatMisc                 0      0.00%     79.85% # Class of executed instruction
system.cpu0.op_class::SimdFloatMult                 0      0.00%     79.85% # Class of executed instruction
system.cpu0.op_class::SimdFloatMultAcc              0      0.00%     79.85% # Class of executed instruction
system.cpu0.op_class::SimdFloatSqrt                 0      0.00%     79.85% # Class of executed instruction
system.cpu0.op_class::MemRead                    5731     11.73%     91.57% # Class of executed instruction
system.cpu0.op_class::MemWrite                   4119      8.43%    100.00% # Class of executed instruction
system.cpu0.op_class::IprAccess                     0      0.00%    100.00% # Class of executed instruction
system.cpu0.op_class::InstPrefetch                  0      0.00%    100.00% # Class of executed instruction
system.cpu0.op_class::total                     48872                       # Class of executed instruction
system.cpu1.apic_clk_domain.clock                8000                       # Clock period in ticks
system.cpu1.numCycles                               0                       # number of cpu cycles simulated
system.cpu1.numWorkItemsStarted                     0                       # number of work items this cpu started
system.cpu1.numWorkItemsCompleted                   0                       # number of work items this cpu completed
system.cpu1.committedInsts                          0                       # Number of instructions committed
system.cpu1.committedOps                            0                       # Number of ops (including micro ops) committed
system.cpu1.num_int_alu_accesses                    0                       # Number of integer alu accesses
system.cpu1.num_fp_alu_accesses                     0                       # Number of float alu accesses
system.cpu1.num_func_calls                          0                       # number of times a function call or return occured
system.cpu1.num_conditional_control_insts            0                       # number of instructions that are conditional controls
system.cpu1.num_int_insts                           0                       # number of integer instructions
system.cpu1.num_fp_insts                            0                       # number of float instructions
system.cpu1.num_int_register_reads                  0                       # number of times the integer registers were read
system.cpu1.num_int_register_writes                 0                       # number of times the integer registers were written
system.cpu1.num_fp_register_reads                   0                       # number of times the floating registers were read
system.cpu1.num_fp_register_writes                  0                       # number of times the floating registers were written
system.cpu1.num_mem_refs                            0                       # number of memory refs
system.cpu1.num_load_insts                          0                       # Number of load instructions
system.cpu1.num_store_insts                         0                       # Number of store instructions
system.cpu1.num_idle_cycles                         0                       # Number of idle cycles
system.cpu1.num_busy_cycles                         0                       # Number of busy cycles
system.cpu1.not_idle_fraction                       0                       # Percentage of non-idle cycles
system.cpu1.idle_fraction                           1                       # Percentage of idle cycles
system.cpu1.op_class::No_OpClass                    0                       # Class of executed instruction
system.cpu1.op_class::IntAlu                        0                       # Class of executed instruction
system.cpu1.op_class::IntMult                       0                       # Class of executed instruction
system.cpu1.op_class::IntDiv                        0                       # Class of executed instruction
system.cpu1.op_class::FloatAdd                      0                       # Class of executed instruction
system.cpu1.op_class::FloatCmp                      0                       # Class of executed instruction
system.cpu1.op_class::FloatCvt                      0                       # Class of executed instruction
system.cpu1.op_class::FloatMult                     0                       # Class of executed instruction
system.cpu1.op_class::FloatDiv                      0                       # Class of executed instruction
system.cpu1.op_class::FloatSqrt                     0                       # Class of executed instruction
system.cpu1.op_class::SimdAdd                       0                       # Class of executed instruction
system.cpu1.op_class::SimdAddAcc                    0                       # Class of executed instruction
system.cpu1.op_class::SimdAlu                       0                       # Class of executed instruction
system.cpu1.op_class::SimdCmp                       0                       # Class of executed instruction
system.cpu1.op_class::SimdCvt                       0                       # Class of executed instruction
system.cpu1.op_class::SimdMisc                      0                       # Class of executed instruction
system.cpu1.op_class::SimdMult                      0                       # Class of executed instruction
system.cpu1.op_class::SimdMultAcc                   0                       # Class of executed instruction
system.cpu1.op_class::SimdShift                     0                       # Class of executed instruction
system.cpu1.op_class::SimdShiftAcc                  0                       # Class of executed instruction
system.cpu1.op_class::SimdSqrt                      0                       # Class of executed instruction
system.cpu1.op_class::SimdFloatAdd                  0                       # Class of executed instruction
system.cpu1.op_class::SimdFloatAlu                  0                       # Class of executed instruction
system.cpu1.op_class::SimdFloatCmp                  0                       # Class of executed instruction
system.cpu1.op_class::SimdFloatCvt                  0                       # Class of executed instruction
system.cpu1.op_class::SimdFloatDiv                  0                       # Class of executed instruction
system.cpu1.op_class::SimdFloatMisc                 0                       # Class of executed instruction
system.cpu1.op_class::SimdFloatMult                 0                       # Class of executed instruction
system.cpu1.op_class::SimdFloatMultAcc              0                       # Class of executed instruction
system.cpu1.op_class::SimdFloatSqrt                 0                       # Class of executed instruction
system.cpu1.op_class::MemRead                       0                       # Class of executed instruction
system.cpu1.op_class::MemWrite                      0                       # Class of executed instruction
system.cpu1.op_class::IprAccess                     0                       # Class of executed instruction
system.cpu1.op_class::InstPrefetch                  0                       # Class of executed instruction
system.cpu1.op_class::total                         0                       # Class of executed instruction
system.gpu.clk_domain.voltage_domain.voltage            1                       # Voltage in Volts
system.gpu.clk_domain.clock                      1429                       # Clock period in ticks
system.gpu.dram_wrapper.clk_domain.clock          541                       # Clock period in ticks
system.gpu.icnt_wrapper.clk_domain.clock         2858                       # Clock period in ticks
system.ruby.delayHist::bucket_size                  2                       # delay histogram for all message
system.ruby.delayHist::max_bucket                  19                       # delay histogram for all message
system.ruby.delayHist::samples                   1743                       # delay histogram for all message
system.ruby.delayHist::mean                  0.128514                       # delay histogram for all message
system.ruby.delayHist::stdev                 1.428594                       # delay histogram for all message
system.ruby.delayHist                    |        1729     99.20%     99.20% |           0      0.00%     99.20% |           0      0.00%     99.20% |           0      0.00%     99.20% |           0      0.00%     99.20% |           0      0.00%     99.20% |           0      0.00%     99.20% |           0      0.00%     99.20% |          14      0.80%    100.00% |           0      0.00%    100.00% # delay histogram for all message
system.ruby.delayHist::total                     1743                       # delay histogram for all message
system.ruby.outstanding_req_hist::bucket_size            1                      
system.ruby.outstanding_req_hist::max_bucket            9                      
system.ruby.outstanding_req_hist::samples        42340                      
system.ruby.outstanding_req_hist::mean       1.000071                      
system.ruby.outstanding_req_hist::gmean      1.000049                      
system.ruby.outstanding_req_hist::stdev      0.008417                      
system.ruby.outstanding_req_hist         |           0      0.00%      0.00% |       42337     99.99%     99.99% |           3      0.01%    100.00% |           0      0.00%    100.00% |           0      0.00%    100.00% |           0      0.00%    100.00% |           0      0.00%    100.00% |           0      0.00%    100.00% |           0      0.00%    100.00% |           0      0.00%    100.00%
system.ruby.outstanding_req_hist::total         42340                      
system.ruby.latency_hist::bucket_size              64                      
system.ruby.latency_hist::max_bucket              639                      
system.ruby.latency_hist::samples               42340                      
system.ruby.latency_hist::mean               2.673925                      
system.ruby.latency_hist::gmean              1.061250                      
system.ruby.latency_hist::stdev             16.058587                      
system.ruby.latency_hist                 |       41838     98.81%     98.81% |         297      0.70%     99.52% |         198      0.47%     99.98% |           1      0.00%     99.99% |           0      0.00%     99.99% |           1      0.00%     99.99% |           0      0.00%     99.99% |           3      0.01%    100.00% |           0      0.00%    100.00% |           2      0.00%    100.00%
system.ruby.latency_hist::total                 42340                      
system.ruby.hit_latency_hist::bucket_size            1                      
system.ruby.hit_latency_hist::max_bucket            9                      
system.ruby.hit_latency_hist::samples           41823                      
system.ruby.hit_latency_hist::mean                  1                      
system.ruby.hit_latency_hist::gmean                 1                      
system.ruby.hit_latency_hist             |           0      0.00%      0.00% |       41823    100.00%    100.00% |           0      0.00%    100.00% |           0      0.00%    100.00% |           0      0.00%    100.00% |           0      0.00%    100.00% |           0      0.00%    100.00% |           0      0.00%    100.00% |           0      0.00%    100.00% |           0      0.00%    100.00%
system.ruby.hit_latency_hist::total             41823                      
system.ruby.miss_latency_hist::bucket_size           64                      
system.ruby.miss_latency_hist::max_bucket          639                      
system.ruby.miss_latency_hist::samples            517                      
system.ruby.miss_latency_hist::mean        138.087041                      
system.ruby.miss_latency_hist::gmean       130.122135                      
system.ruby.miss_latency_hist::stdev        50.597919                      
system.ruby.miss_latency_hist            |          15      2.90%      2.90% |         297     57.45%     60.35% |         198     38.30%     98.65% |           1      0.19%     98.84% |           0      0.00%     98.84% |           1      0.19%     99.03% |           0      0.00%     99.03% |           3      0.58%     99.61% |           0      0.00%     99.61% |           2      0.39%    100.00%
system.ruby.miss_latency_hist::total              517                      
system.gpu.shader_mmu.numPagefaults                 0                       # Number of Pagefaults
system.gpu.shader_mmu.numPagewalks                  0                       # Number of Pagewalks
system.gpu.shader_mmu.totalRequests                 0                       # Total number of requests
system.gpu.shader_mmu.l2hits                        0                       # Hits in the shared L2
system.gpu.shader_mmu.prefetchHits                  0                       # Number of prefetch hits
system.gpu.shader_mmu.numPrefetches                 0                       # Number of prefetchs
system.gpu.shader_mmu.prefetchFaults                0                       # Number of faults caused by prefetches
system.gpu.shader_mmu.pagefaultLatency::samples            0                       # Latency to complete the pagefault
system.gpu.shader_mmu.pagefaultLatency::mean          nan                       # Latency to complete the pagefault
system.gpu.shader_mmu.pagefaultLatency::gmean          nan                       # Latency to complete the pagefault
system.gpu.shader_mmu.pagefaultLatency::stdev          nan                       # Latency to complete the pagefault
system.gpu.shader_mmu.pagefaultLatency::0            0                       # Latency to complete the pagefault
system.gpu.shader_mmu.pagefaultLatency::1            0                       # Latency to complete the pagefault
system.gpu.shader_mmu.pagefaultLatency::2            0                       # Latency to complete the pagefault
system.gpu.shader_mmu.pagefaultLatency::3            0                       # Latency to complete the pagefault
system.gpu.shader_mmu.pagefaultLatency::4            0                       # Latency to complete the pagefault
system.gpu.shader_mmu.pagefaultLatency::5            0                       # Latency to complete the pagefault
system.gpu.shader_mmu.pagefaultLatency::6            0                       # Latency to complete the pagefault
system.gpu.shader_mmu.pagefaultLatency::7            0                       # Latency to complete the pagefault
system.gpu.shader_mmu.pagefaultLatency::8            0                       # Latency to complete the pagefault
system.gpu.shader_mmu.pagefaultLatency::9            0                       # Latency to complete the pagefault
system.gpu.shader_mmu.pagefaultLatency::10            0                       # Latency to complete the pagefault
system.gpu.shader_mmu.pagefaultLatency::11            0                       # Latency to complete the pagefault
system.gpu.shader_mmu.pagefaultLatency::12            0                       # Latency to complete the pagefault
system.gpu.shader_mmu.pagefaultLatency::13            0                       # Latency to complete the pagefault
system.gpu.shader_mmu.pagefaultLatency::14            0                       # Latency to complete the pagefault
system.gpu.shader_mmu.pagefaultLatency::15            0                       # Latency to complete the pagefault
system.gpu.shader_mmu.pagefaultLatency::16            0                       # Latency to complete the pagefault
system.gpu.shader_mmu.pagefaultLatency::17            0                       # Latency to complete the pagefault
system.gpu.shader_mmu.pagefaultLatency::18            0                       # Latency to complete the pagefault
system.gpu.shader_mmu.pagefaultLatency::19            0                       # Latency to complete the pagefault
system.gpu.shader_mmu.pagefaultLatency::20            0                       # Latency to complete the pagefault
system.gpu.shader_mmu.pagefaultLatency::21            0                       # Latency to complete the pagefault
system.gpu.shader_mmu.pagefaultLatency::22            0                       # Latency to complete the pagefault
system.gpu.shader_mmu.pagefaultLatency::23            0                       # Latency to complete the pagefault
system.gpu.shader_mmu.pagefaultLatency::24            0                       # Latency to complete the pagefault
system.gpu.shader_mmu.pagefaultLatency::25            0                       # Latency to complete the pagefault
system.gpu.shader_mmu.pagefaultLatency::26            0                       # Latency to complete the pagefault
system.gpu.shader_mmu.pagefaultLatency::27            0                       # Latency to complete the pagefault
system.gpu.shader_mmu.pagefaultLatency::28            0                       # Latency to complete the pagefault
system.gpu.shader_mmu.pagefaultLatency::29            0                       # Latency to complete the pagefault
system.gpu.shader_mmu.pagefaultLatency::30            0                       # Latency to complete the pagefault
system.gpu.shader_mmu.pagefaultLatency::31            0                       # Latency to complete the pagefault
system.gpu.shader_mmu.pagefaultLatency::total            0                       # Latency to complete the pagefault
system.gpu.shader_mmu.concurrentWalks::samples            0                       # Number of outstanding walks
system.gpu.shader_mmu.concurrentWalks::mean          nan                       # Number of outstanding walks
system.gpu.shader_mmu.concurrentWalks::gmean          nan                       # Number of outstanding walks
system.gpu.shader_mmu.concurrentWalks::stdev          nan                       # Number of outstanding walks
system.gpu.shader_mmu.concurrentWalks::0            0                       # Number of outstanding walks
system.gpu.shader_mmu.concurrentWalks::1            0                       # Number of outstanding walks
system.gpu.shader_mmu.concurrentWalks::2            0                       # Number of outstanding walks
system.gpu.shader_mmu.concurrentWalks::3            0                       # Number of outstanding walks
system.gpu.shader_mmu.concurrentWalks::4            0                       # Number of outstanding walks
system.gpu.shader_mmu.concurrentWalks::5            0                       # Number of outstanding walks
system.gpu.shader_mmu.concurrentWalks::6            0                       # Number of outstanding walks
system.gpu.shader_mmu.concurrentWalks::7            0                       # Number of outstanding walks
system.gpu.shader_mmu.concurrentWalks::8            0                       # Number of outstanding walks
system.gpu.shader_mmu.concurrentWalks::9            0                       # Number of outstanding walks
system.gpu.shader_mmu.concurrentWalks::10            0                       # Number of outstanding walks
system.gpu.shader_mmu.concurrentWalks::11            0                       # Number of outstanding walks
system.gpu.shader_mmu.concurrentWalks::12            0                       # Number of outstanding walks
system.gpu.shader_mmu.concurrentWalks::13            0                       # Number of outstanding walks
system.gpu.shader_mmu.concurrentWalks::14            0                       # Number of outstanding walks
system.gpu.shader_mmu.concurrentWalks::15            0                       # Number of outstanding walks
system.gpu.shader_mmu.concurrentWalks::total            0                       # Number of outstanding walks
system.gpu.shader_mmu.pagewalkLatency::samples            0                       # Latency to complete the pagewalk
system.gpu.shader_mmu.pagewalkLatency::mean          nan                       # Latency to complete the pagewalk
system.gpu.shader_mmu.pagewalkLatency::gmean          nan                       # Latency to complete the pagewalk
system.gpu.shader_mmu.pagewalkLatency::stdev          nan                       # Latency to complete the pagewalk
system.gpu.shader_mmu.pagewalkLatency::0            0                       # Latency to complete the pagewalk
system.gpu.shader_mmu.pagewalkLatency::1            0                       # Latency to complete the pagewalk
system.gpu.shader_mmu.pagewalkLatency::2            0                       # Latency to complete the pagewalk
system.gpu.shader_mmu.pagewalkLatency::3            0                       # Latency to complete the pagewalk
system.gpu.shader_mmu.pagewalkLatency::4            0                       # Latency to complete the pagewalk
system.gpu.shader_mmu.pagewalkLatency::5            0                       # Latency to complete the pagewalk
system.gpu.shader_mmu.pagewalkLatency::6            0                       # Latency to complete the pagewalk
system.gpu.shader_mmu.pagewalkLatency::7            0                       # Latency to complete the pagewalk
system.gpu.shader_mmu.pagewalkLatency::8            0                       # Latency to complete the pagewalk
system.gpu.shader_mmu.pagewalkLatency::9            0                       # Latency to complete the pagewalk
system.gpu.shader_mmu.pagewalkLatency::10            0                       # Latency to complete the pagewalk
system.gpu.shader_mmu.pagewalkLatency::11            0                       # Latency to complete the pagewalk
system.gpu.shader_mmu.pagewalkLatency::12            0                       # Latency to complete the pagewalk
system.gpu.shader_mmu.pagewalkLatency::13            0                       # Latency to complete the pagewalk
system.gpu.shader_mmu.pagewalkLatency::14            0                       # Latency to complete the pagewalk
system.gpu.shader_mmu.pagewalkLatency::15            0                       # Latency to complete the pagewalk
system.gpu.shader_mmu.pagewalkLatency::16            0                       # Latency to complete the pagewalk
system.gpu.shader_mmu.pagewalkLatency::17            0                       # Latency to complete the pagewalk
system.gpu.shader_mmu.pagewalkLatency::18            0                       # Latency to complete the pagewalk
system.gpu.shader_mmu.pagewalkLatency::19            0                       # Latency to complete the pagewalk
system.gpu.shader_mmu.pagewalkLatency::20            0                       # Latency to complete the pagewalk
system.gpu.shader_mmu.pagewalkLatency::21            0                       # Latency to complete the pagewalk
system.gpu.shader_mmu.pagewalkLatency::22            0                       # Latency to complete the pagewalk
system.gpu.shader_mmu.pagewalkLatency::23            0                       # Latency to complete the pagewalk
system.gpu.shader_mmu.pagewalkLatency::24            0                       # Latency to complete the pagewalk
system.gpu.shader_mmu.pagewalkLatency::25            0                       # Latency to complete the pagewalk
system.gpu.shader_mmu.pagewalkLatency::26            0                       # Latency to complete the pagewalk
system.gpu.shader_mmu.pagewalkLatency::27            0                       # Latency to complete the pagewalk
system.gpu.shader_mmu.pagewalkLatency::28            0                       # Latency to complete the pagewalk
system.gpu.shader_mmu.pagewalkLatency::29            0                       # Latency to complete the pagewalk
system.gpu.shader_mmu.pagewalkLatency::30            0                       # Latency to complete the pagewalk
system.gpu.shader_mmu.pagewalkLatency::31            0                       # Latency to complete the pagewalk
system.gpu.shader_mmu.pagewalkLatency::total            0                       # Latency to complete the pagewalk
system.gpu.kernels_started                          0                       # Number of kernels started
system.gpu.kernels_completed                        0                       # Number of kernels completed
system.gpu.ce.device_dtb.hits                       0                       # Number of hits in this TLB
system.gpu.ce.device_dtb.misses                     0                       # Number of misses in this TLB
system.gpu.ce.device_dtb.hitRate                  nan                       # Hit rate for this TLB
system.gpu.ce.host_dtb.hits                         0                       # Number of hits in this TLB
system.gpu.ce.host_dtb.misses                       0                       # Number of misses in this TLB
system.gpu.ce.host_dtb.hitRate                    nan                       # Hit rate for this TLB
system.gpu.ce.numOperations                         0                       # Number of copy/memset operations
system.gpu.ce.opBytesRead                           0                       # Number of copy bytes read
system.gpu.ce.opBytesWritten                        0                       # Number of copy/memset bytes written
system.gpu.ce.opTimeTicks                           0                       # Total time spent in copy/memset operations
system.gpu.shader_cores0.itb.hits                   0                       # Number of hits in this TLB
system.gpu.shader_cores0.itb.misses                 0                       # Number of misses in this TLB
system.gpu.shader_cores0.itb.hitRate              nan                       # Hit rate for this TLB
system.gpu.shader_cores0.local_loads                0                       # Number of loads from local space
system.gpu.shader_cores0.local_stores               0                       # Number of stores to local space
system.gpu.shader_cores0.shared_loads               0                       # Number of loads from shared space
system.gpu.shader_cores0.shared_stores              0                       # Number of stores to shared space
system.gpu.shader_cores0.param_kernel_loads            0                       # Number of loads from kernel parameter space
system.gpu.shader_cores0.param_local_loads            0                       # Number of loads from local parameter space
system.gpu.shader_cores0.param_local_stores            0                       # Number of stores to local parameter space
system.gpu.shader_cores0.const_loads                0                       # Number of loads from constant space
system.gpu.shader_cores0.tex_loads                  0                       # Number of loads from texture space
system.gpu.shader_cores0.global_loads               0                       # Number of loads from global space
system.gpu.shader_cores0.global_stores              0                       # Number of stores to global space
system.gpu.shader_cores0.surf_loads                 0                       # Number of loads from surface space
system.gpu.shader_cores0.generic_loads              0                       # Number of loads from generic spaces (global, shared, local)
system.gpu.shader_cores0.generic_stores             0                       # Number of stores to generic spaces (global, shared, local)
system.gpu.shader_cores0.inst_cache_requests            0                       # Number of instruction cache requests sent
system.gpu.shader_cores0.inst_cache_retries            0                       # Number of instruction cache retries
system.gpu.shader_cores0.inst_counts::0             0                       # Inst counts: 1: ALU, 2: MAD, 3: CTRL, 4: SFU, 5: MEM, 6: TEX, 7: NOP
system.gpu.shader_cores0.inst_counts::1             0                       # Inst counts: 1: ALU, 2: MAD, 3: CTRL, 4: SFU, 5: MEM, 6: TEX, 7: NOP
system.gpu.shader_cores0.inst_counts::2             0                       # Inst counts: 1: ALU, 2: MAD, 3: CTRL, 4: SFU, 5: MEM, 6: TEX, 7: NOP
system.gpu.shader_cores0.inst_counts::3             0                       # Inst counts: 1: ALU, 2: MAD, 3: CTRL, 4: SFU, 5: MEM, 6: TEX, 7: NOP
system.gpu.shader_cores0.inst_counts::4             0                       # Inst counts: 1: ALU, 2: MAD, 3: CTRL, 4: SFU, 5: MEM, 6: TEX, 7: NOP
system.gpu.shader_cores0.inst_counts::5             0                       # Inst counts: 1: ALU, 2: MAD, 3: CTRL, 4: SFU, 5: MEM, 6: TEX, 7: NOP
system.gpu.shader_cores0.inst_counts::6             0                       # Inst counts: 1: ALU, 2: MAD, 3: CTRL, 4: SFU, 5: MEM, 6: TEX, 7: NOP
system.gpu.shader_cores0.inst_counts::7             0                       # Inst counts: 1: ALU, 2: MAD, 3: CTRL, 4: SFU, 5: MEM, 6: TEX, 7: NOP
system.gpu.shader_cores0.activeCycles               0                       # Number of cycles this shader was executing a CTA
system.gpu.shader_cores0.notStalledCycles            0                       # Number of cycles this shader was actually executing at least one instance
system.gpu.shader_cores0.instInstances              0                       # Total instructions executed by all PEs in the core
system.gpu.shader_cores0.instPerCycle             nan                       # Instruction instances per cycle
system.gpu.shader_cores0.kernels_completed            0                       # Number of kernels completed
system.gpu.shader_cores0.lsq.data_tlb.hits            0                       # Number of hits in this TLB
system.gpu.shader_cores0.lsq.data_tlb.misses            0                       # Number of misses in this TLB
system.gpu.shader_cores0.lsq.data_tlb.hitRate          nan                       # Hit rate for this TLB
system.gpu.shader_cores0.lsq.warpInstBufActive::samples            0                       # Histogram of number of active warp inst buffers at a given time
system.gpu.shader_cores0.lsq.warpInstBufActive::mean          nan                       # Histogram of number of active warp inst buffers at a given time
system.gpu.shader_cores0.lsq.warpInstBufActive::gmean          nan                       # Histogram of number of active warp inst buffers at a given time
system.gpu.shader_cores0.lsq.warpInstBufActive::stdev          nan                       # Histogram of number of active warp inst buffers at a given time
system.gpu.shader_cores0.lsq.warpInstBufActive::0            0                       # Histogram of number of active warp inst buffers at a given time
system.gpu.shader_cores0.lsq.warpInstBufActive::1            0                       # Histogram of number of active warp inst buffers at a given time
system.gpu.shader_cores0.lsq.warpInstBufActive::2            0                       # Histogram of number of active warp inst buffers at a given time
system.gpu.shader_cores0.lsq.warpInstBufActive::3            0                       # Histogram of number of active warp inst buffers at a given time
system.gpu.shader_cores0.lsq.warpInstBufActive::4            0                       # Histogram of number of active warp inst buffers at a given time
system.gpu.shader_cores0.lsq.warpInstBufActive::5            0                       # Histogram of number of active warp inst buffers at a given time
system.gpu.shader_cores0.lsq.warpInstBufActive::6            0                       # Histogram of number of active warp inst buffers at a given time
system.gpu.shader_cores0.lsq.warpInstBufActive::7            0                       # Histogram of number of active warp inst buffers at a given time
system.gpu.shader_cores0.lsq.warpInstBufActive::8            0                       # Histogram of number of active warp inst buffers at a given time
system.gpu.shader_cores0.lsq.warpInstBufActive::9            0                       # Histogram of number of active warp inst buffers at a given time
system.gpu.shader_cores0.lsq.warpInstBufActive::10            0                       # Histogram of number of active warp inst buffers at a given time
system.gpu.shader_cores0.lsq.warpInstBufActive::11            0                       # Histogram of number of active warp inst buffers at a given time
system.gpu.shader_cores0.lsq.warpInstBufActive::12            0                       # Histogram of number of active warp inst buffers at a given time
system.gpu.shader_cores0.lsq.warpInstBufActive::13            0                       # Histogram of number of active warp inst buffers at a given time
system.gpu.shader_cores0.lsq.warpInstBufActive::14            0                       # Histogram of number of active warp inst buffers at a given time
system.gpu.shader_cores0.lsq.warpInstBufActive::15            0                       # Histogram of number of active warp inst buffers at a given time
system.gpu.shader_cores0.lsq.warpInstBufActive::16            0                       # Histogram of number of active warp inst buffers at a given time
system.gpu.shader_cores0.lsq.warpInstBufActive::17            0                       # Histogram of number of active warp inst buffers at a given time
system.gpu.shader_cores0.lsq.warpInstBufActive::18            0                       # Histogram of number of active warp inst buffers at a given time
system.gpu.shader_cores0.lsq.warpInstBufActive::19            0                       # Histogram of number of active warp inst buffers at a given time
system.gpu.shader_cores0.lsq.warpInstBufActive::20            0                       # Histogram of number of active warp inst buffers at a given time
system.gpu.shader_cores0.lsq.warpInstBufActive::21            0                       # Histogram of number of active warp inst buffers at a given time
system.gpu.shader_cores0.lsq.warpInstBufActive::22            0                       # Histogram of number of active warp inst buffers at a given time
system.gpu.shader_cores0.lsq.warpInstBufActive::23            0                       # Histogram of number of active warp inst buffers at a given time
system.gpu.shader_cores0.lsq.warpInstBufActive::24            0                       # Histogram of number of active warp inst buffers at a given time
system.gpu.shader_cores0.lsq.warpInstBufActive::25            0                       # Histogram of number of active warp inst buffers at a given time
system.gpu.shader_cores0.lsq.warpInstBufActive::26            0                       # Histogram of number of active warp inst buffers at a given time
system.gpu.shader_cores0.lsq.warpInstBufActive::27            0                       # Histogram of number of active warp inst buffers at a given time
system.gpu.shader_cores0.lsq.warpInstBufActive::28            0                       # Histogram of number of active warp inst buffers at a given time
system.gpu.shader_cores0.lsq.warpInstBufActive::29            0                       # Histogram of number of active warp inst buffers at a given time
system.gpu.shader_cores0.lsq.warpInstBufActive::30            0                       # Histogram of number of active warp inst buffers at a given time
system.gpu.shader_cores0.lsq.warpInstBufActive::31            0                       # Histogram of number of active warp inst buffers at a given time
system.gpu.shader_cores0.lsq.warpInstBufActive::32            0                       # Histogram of number of active warp inst buffers at a given time
system.gpu.shader_cores0.lsq.warpInstBufActive::33            0                       # Histogram of number of active warp inst buffers at a given time
system.gpu.shader_cores0.lsq.warpInstBufActive::34            0                       # Histogram of number of active warp inst buffers at a given time
system.gpu.shader_cores0.lsq.warpInstBufActive::35            0                       # Histogram of number of active warp inst buffers at a given time
system.gpu.shader_cores0.lsq.warpInstBufActive::36            0                       # Histogram of number of active warp inst buffers at a given time
system.gpu.shader_cores0.lsq.warpInstBufActive::37            0                       # Histogram of number of active warp inst buffers at a given time
system.gpu.shader_cores0.lsq.warpInstBufActive::38            0                       # Histogram of number of active warp inst buffers at a given time
system.gpu.shader_cores0.lsq.warpInstBufActive::39            0                       # Histogram of number of active warp inst buffers at a given time
system.gpu.shader_cores0.lsq.warpInstBufActive::40            0                       # Histogram of number of active warp inst buffers at a given time
system.gpu.shader_cores0.lsq.warpInstBufActive::41            0                       # Histogram of number of active warp inst buffers at a given time
system.gpu.shader_cores0.lsq.warpInstBufActive::42            0                       # Histogram of number of active warp inst buffers at a given time
system.gpu.shader_cores0.lsq.warpInstBufActive::43            0                       # Histogram of number of active warp inst buffers at a given time
system.gpu.shader_cores0.lsq.warpInstBufActive::44            0                       # Histogram of number of active warp inst buffers at a given time
system.gpu.shader_cores0.lsq.warpInstBufActive::45            0                       # Histogram of number of active warp inst buffers at a given time
system.gpu.shader_cores0.lsq.warpInstBufActive::46            0                       # Histogram of number of active warp inst buffers at a given time
system.gpu.shader_cores0.lsq.warpInstBufActive::47            0                       # Histogram of number of active warp inst buffers at a given time
system.gpu.shader_cores0.lsq.warpInstBufActive::48            0                       # Histogram of number of active warp inst buffers at a given time
system.gpu.shader_cores0.lsq.warpInstBufActive::49            0                       # Histogram of number of active warp inst buffers at a given time
system.gpu.shader_cores0.lsq.warpInstBufActive::50            0                       # Histogram of number of active warp inst buffers at a given time
system.gpu.shader_cores0.lsq.warpInstBufActive::51            0                       # Histogram of number of active warp inst buffers at a given time
system.gpu.shader_cores0.lsq.warpInstBufActive::52            0                       # Histogram of number of active warp inst buffers at a given time
system.gpu.shader_cores0.lsq.warpInstBufActive::53            0                       # Histogram of number of active warp inst buffers at a given time
system.gpu.shader_cores0.lsq.warpInstBufActive::54            0                       # Histogram of number of active warp inst buffers at a given time
system.gpu.shader_cores0.lsq.warpInstBufActive::55            0                       # Histogram of number of active warp inst buffers at a given time
system.gpu.shader_cores0.lsq.warpInstBufActive::56            0                       # Histogram of number of active warp inst buffers at a given time
system.gpu.shader_cores0.lsq.warpInstBufActive::57            0                       # Histogram of number of active warp inst buffers at a given time
system.gpu.shader_cores0.lsq.warpInstBufActive::58            0                       # Histogram of number of active warp inst buffers at a given time
system.gpu.shader_cores0.lsq.warpInstBufActive::59            0                       # Histogram of number of active warp inst buffers at a given time
system.gpu.shader_cores0.lsq.warpInstBufActive::60            0                       # Histogram of number of active warp inst buffers at a given time
system.gpu.shader_cores0.lsq.warpInstBufActive::61            0                       # Histogram of number of active warp inst buffers at a given time
system.gpu.shader_cores0.lsq.warpInstBufActive::62            0                       # Histogram of number of active warp inst buffers at a given time
system.gpu.shader_cores0.lsq.warpInstBufActive::63            0                       # Histogram of number of active warp inst buffers at a given time
system.gpu.shader_cores0.lsq.warpInstBufActive::64            0                       # Histogram of number of active warp inst buffers at a given time
system.gpu.shader_cores0.lsq.warpInstBufActive::total            0                       # Histogram of number of active warp inst buffers at a given time
system.gpu.shader_cores0.lsq.cacheAccesses            0                       # Average number of concurrent outstanding cache accesses
system.gpu.shader_cores0.lsq.writebackBlockedCycles            0                       # Number of cycles blocked for core writeback stage
system.gpu.shader_cores0.lsq.mshrHitQueued            0                       # Number of hits on blocked lines in MSHRs
system.gpu.shader_cores0.lsq.mshrsFullCycles            0                       # Number of cycles stalled waiting for an MSHR
system.gpu.shader_cores0.lsq.mshrsFullCount            0                       # Number of times MSHRs filled
system.gpu.shader_cores0.lsq.warpCoalescedAccesses::samples            0                       # Number of coalesced accesses per warp instruction
system.gpu.shader_cores0.lsq.warpCoalescedAccesses::mean          nan                       # Number of coalesced accesses per warp instruction
system.gpu.shader_cores0.lsq.warpCoalescedAccesses::gmean          nan                       # Number of coalesced accesses per warp instruction
system.gpu.shader_cores0.lsq.warpCoalescedAccesses::stdev          nan                       # Number of coalesced accesses per warp instruction
system.gpu.shader_cores0.lsq.warpCoalescedAccesses::0            0                       # Number of coalesced accesses per warp instruction
system.gpu.shader_cores0.lsq.warpCoalescedAccesses::1            0                       # Number of coalesced accesses per warp instruction
system.gpu.shader_cores0.lsq.warpCoalescedAccesses::2            0                       # Number of coalesced accesses per warp instruction
system.gpu.shader_cores0.lsq.warpCoalescedAccesses::3            0                       # Number of coalesced accesses per warp instruction
system.gpu.shader_cores0.lsq.warpCoalescedAccesses::4            0                       # Number of coalesced accesses per warp instruction
system.gpu.shader_cores0.lsq.warpCoalescedAccesses::5            0                       # Number of coalesced accesses per warp instruction
system.gpu.shader_cores0.lsq.warpCoalescedAccesses::6            0                       # Number of coalesced accesses per warp instruction
system.gpu.shader_cores0.lsq.warpCoalescedAccesses::7            0                       # Number of coalesced accesses per warp instruction
[...]
system.ruby.IFETCH.latency_hist::total          32487                      
system.ruby.IFETCH.hit_latency_hist::bucket_size            1                      
system.ruby.IFETCH.hit_latency_hist::max_bucket            9                      
system.ruby.IFETCH.hit_latency_hist::samples        32131                      
system.ruby.IFETCH.hit_latency_hist::mean            1                      
system.ruby.IFETCH.hit_latency_hist::gmean            1                      
system.ruby.IFETCH.hit_latency_hist      |           0      0.00%      0.00% |       32131    100.00%    100.00% |           0      0.00%    100.00% |           0      0.00%    100.00% |           0      0.00%    100.00% |           0      0.00%    100.00% |           0      0.00%    100.00% |           0      0.00%    100.00% |           0      0.00%    100.00% |           0      0.00%    100.00%
system.ruby.IFETCH.hit_latency_hist::total        32131                      
system.ruby.IFETCH.miss_latency_hist::bucket_size           64                      
system.ruby.IFETCH.miss_latency_hist::max_bucket          639                      
system.ruby.IFETCH.miss_latency_hist::samples          356                      
system.ruby.IFETCH.miss_latency_hist::mean   137.182584                      
system.ruby.IFETCH.miss_latency_hist::gmean   128.956146                      
system.ruby.IFETCH.miss_latency_hist::stdev    55.910722                      
system.ruby.IFETCH.miss_latency_hist     |           9      2.53%      2.53% |         228     64.04%     66.57% |         113     31.74%     98.31% |           1      0.28%     98.60% |           0      0.00%     98.60% |           0      0.00%     98.60% |           0      0.00%     98.60% |           3      0.84%     99.44% |           0      0.00%     99.44% |           2      0.56%    100.00%
system.ruby.IFETCH.miss_latency_hist::total          356                      
system.ruby.RMW_Read.latency_hist::bucket_size           16                      
system.ruby.RMW_Read.latency_hist::max_bucket          159                      
system.ruby.RMW_Read.latency_hist::samples          253                      
system.ruby.RMW_Read.latency_hist::mean      1.581028                      
system.ruby.RMW_Read.latency_hist::gmean     1.019948                      
system.ruby.RMW_Read.latency_hist::stdev     9.241811                      
system.ruby.RMW_Read.latency_hist        |         252     99.60%     99.60% |           0      0.00%     99.60% |           0      0.00%     99.60% |           0      0.00%     99.60% |           0      0.00%     99.60% |           0      0.00%     99.60% |           0      0.00%     99.60% |           0      0.00%     99.60% |           0      0.00%     99.60% |           1      0.40%    100.00%
system.ruby.RMW_Read.latency_hist::total          253                      
system.ruby.RMW_Read.hit_latency_hist::bucket_size            1                      
system.ruby.RMW_Read.hit_latency_hist::max_bucket            9                      
system.ruby.RMW_Read.hit_latency_hist::samples          252                      
system.ruby.RMW_Read.hit_latency_hist::mean            1                      
system.ruby.RMW_Read.hit_latency_hist::gmean            1                      
system.ruby.RMW_Read.hit_latency_hist    |           0      0.00%      0.00% |         252    100.00%    100.00% |           0      0.00%    100.00% |           0      0.00%    100.00% |           0      0.00%    100.00% |           0      0.00%    100.00% |           0      0.00%    100.00% |           0      0.00%    100.00% |           0      0.00%    100.00% |           0      0.00%    100.00%
system.ruby.RMW_Read.hit_latency_hist::total          252                      
system.ruby.RMW_Read.miss_latency_hist::bucket_size           16                      
system.ruby.RMW_Read.miss_latency_hist::max_bucket          159                      
system.ruby.RMW_Read.miss_latency_hist::samples            1                      
system.ruby.RMW_Read.miss_latency_hist::mean          148                      
system.ruby.RMW_Read.miss_latency_hist::gmean   148.000000                      
system.ruby.RMW_Read.miss_latency_hist::stdev          nan                      
system.ruby.RMW_Read.miss_latency_hist   |           0      0.00%      0.00% |           0      0.00%      0.00% |           0      0.00%      0.00% |           0      0.00%      0.00% |           0      0.00%      0.00% |           0      0.00%      0.00% |           0      0.00%      0.00% |           0      0.00%      0.00% |           0      0.00%      0.00% |           1    100.00%    100.00%
system.ruby.RMW_Read.miss_latency_hist::total            1                      
system.ruby.Locked_RMW_Read.latency_hist::bucket_size            1                      
system.ruby.Locked_RMW_Read.latency_hist::max_bucket            9                      
system.ruby.Locked_RMW_Read.latency_hist::samples           10                      
system.ruby.Locked_RMW_Read.latency_hist::mean            1                      
system.ruby.Locked_RMW_Read.latency_hist::gmean            1                      
system.ruby.Locked_RMW_Read.latency_hist |           0      0.00%      0.00% |          10    100.00%    100.00% |           0      0.00%    100.00% |           0      0.00%    100.00% |           0      0.00%    100.00% |           0      0.00%    100.00% |           0      0.00%    100.00% |           0      0.00%    100.00% |           0      0.00%    100.00% |           0      0.00%    100.00%
system.ruby.Locked_RMW_Read.latency_hist::total           10                      
system.ruby.Locked_RMW_Read.hit_latency_hist::bucket_size            1                      
system.ruby.Locked_RMW_Read.hit_latency_hist::max_bucket            9                      
system.ruby.Locked_RMW_Read.hit_latency_hist::samples           10                      
system.ruby.Locked_RMW_Read.hit_latency_hist::mean            1                      
system.ruby.Locked_RMW_Read.hit_latency_hist::gmean            1                      
system.ruby.Locked_RMW_Read.hit_latency_hist |           0      0.00%      0.00% |          10    100.00%    100.00% |           0      0.00%    100.00% |           0      0.00%    100.00% |           0      0.00%    100.00% |           0      0.00%    100.00% |           0      0.00%    100.00% |           0      0.00%    100.00% |           0      0.00%    100.00% |           0      0.00%    100.00%
system.ruby.Locked_RMW_Read.hit_latency_hist::total           10                      
system.ruby.Locked_RMW_Write.latency_hist::bucket_size            1                      
system.ruby.Locked_RMW_Write.latency_hist::max_bucket            9                      
system.ruby.Locked_RMW_Write.latency_hist::samples           10                      
system.ruby.Locked_RMW_Write.latency_hist::mean            1                      
system.ruby.Locked_RMW_Write.latency_hist::gmean            1                      
system.ruby.Locked_RMW_Write.latency_hist |           0      0.00%      0.00% |          10    100.00%    100.00% |           0      0.00%    100.00% |           0      0.00%    100.00% |           0      0.00%    100.00% |           0      0.00%    100.00% |           0      0.00%    100.00% |           0      0.00%    100.00% |           0      0.00%    100.00% |           0      0.00%    100.00%
system.ruby.Locked_RMW_Write.latency_hist::total           10                      
system.ruby.Locked_RMW_Write.hit_latency_hist::bucket_size            1                      
system.ruby.Locked_RMW_Write.hit_latency_hist::max_bucket            9                      
system.ruby.Locked_RMW_Write.hit_latency_hist::samples           10                      
system.ruby.Locked_RMW_Write.hit_latency_hist::mean            1                      
system.ruby.Locked_RMW_Write.hit_latency_hist::gmean            1                      
system.ruby.Locked_RMW_Write.hit_latency_hist |           0      0.00%      0.00% |          10    100.00%    100.00% |           0      0.00%    100.00% |           0      0.00%    100.00% |           0      0.00%    100.00% |           0      0.00%    100.00% |           0      0.00%    100.00% |           0      0.00%    100.00% |           0      0.00%    100.00% |           0      0.00%    100.00%
system.ruby.Locked_RMW_Write.hit_latency_hist::total           10                      
system.ruby.Directory_Controller.Fetch            502      0.00%      0.00%
system.ruby.Directory_Controller.Memory_Data          502      0.00%      0.00%
system.ruby.Directory_Controller.I.Fetch          502      0.00%      0.00%
system.ruby.Directory_Controller.IM.Memory_Data          502      0.00%      0.00%
system.ruby.L1Cache_Controller.Load      |        5470    100.00%    100.00% |           0      0.00%    100.00% |           0      0.00%    100.00% |           0      0.00%    100.00% |           0      0.00%    100.00% |           0      0.00%    100.00% |           0      0.00%    100.00% |           0      0.00%    100.00%
system.ruby.L1Cache_Controller.Load::total         5470                      
system.ruby.L1Cache_Controller.Ifetch    |       32488    100.00%    100.00% |           0      0.00%    100.00% |           0      0.00%    100.00% |           0      0.00%    100.00% |           0      0.00%    100.00% |           0      0.00%    100.00% |           0      0.00%    100.00% |           0      0.00%    100.00%
system.ruby.L1Cache_Controller.Ifetch::total        32488                      
system.ruby.L1Cache_Controller.Store     |        4383    100.00%    100.00% |           0      0.00%    100.00% |           0      0.00%    100.00% |           0      0.00%    100.00% |           0      0.00%    100.00% |           0      0.00%    100.00% |           0      0.00%    100.00% |           0      0.00%    100.00%
system.ruby.L1Cache_Controller.Store::total         4383                      
system.ruby.L1Cache_Controller.L1_Replacement |         149    100.00%    100.00% |           0      0.00%    100.00% |           0      0.00%    100.00% |           0      0.00%    100.00% |           0      0.00%    100.00% |           0      0.00%    100.00% |           0      0.00%    100.00% |           0      0.00%    100.00%
system.ruby.L1Cache_Controller.L1_Replacement::total          149                      
system.ruby.L1Cache_Controller.Data_Exclusive |          88    100.00%    100.00% |           0      0.00%    100.00% |           0      0.00%    100.00% |           0      0.00%    100.00% |           0      0.00%    100.00% |           0      0.00%    100.00% |           0      0.00%    100.00% |           0      0.00%    100.00%
system.ruby.L1Cache_Controller.Data_Exclusive::total           88                      
system.ruby.L1Cache_Controller.Data_all_Acks |         429    100.00%    100.00% |           0      0.00%    100.00% |           0      0.00%    100.00% |           0      0.00%    100.00% |           0      0.00%    100.00% |           0      0.00%    100.00% |           0      0.00%    100.00% |           0      0.00%    100.00%
system.ruby.L1Cache_Controller.Data_all_Acks::total          429                      
system.ruby.L1Cache_Controller.WB_Ack    |          23    100.00%    100.00% |           0      0.00%    100.00% |           0      0.00%    100.00% |           0      0.00%    100.00% |           0      0.00%    100.00% |           0      0.00%    100.00% |           0      0.00%    100.00% |           0      0.00%    100.00%
system.ruby.L1Cache_Controller.WB_Ack::total           23                      
system.ruby.L1Cache_Controller.NP.Load   |          88    100.00%    100.00% |           0      0.00%    100.00% |           0      0.00%    100.00% |           0      0.00%    100.00% |           0      0.00%    100.00% |           0      0.00%    100.00% |           0      0.00%    100.00% |           0      0.00%    100.00%
system.ruby.L1Cache_Controller.NP.Load::total           88                      
system.ruby.L1Cache_Controller.NP.Ifetch |         356    100.00%    100.00% |           0      0.00%    100.00% |           0      0.00%    100.00% |           0      0.00%    100.00% |           0      0.00%    100.00% |           0      0.00%    100.00% |           0      0.00%    100.00% |           0      0.00%    100.00%
system.ruby.L1Cache_Controller.NP.Ifetch::total          356                      
system.ruby.L1Cache_Controller.NP.Store  |          73    100.00%    100.00% |           0      0.00%    100.00% |           0      0.00%    100.00% |           0      0.00%    100.00% |           0      0.00%    100.00% |           0      0.00%    100.00% |           0      0.00%    100.00% |           0      0.00%    100.00%
system.ruby.L1Cache_Controller.NP.Store::total           73                      
system.ruby.L1Cache_Controller.S.Ifetch  |       32131    100.00%    100.00% |           0      0.00%    100.00% |           0      0.00%    100.00% |           0      0.00%    100.00% |           0      0.00%    100.00% |           0      0.00%    100.00% |           0      0.00%    100.00% |           0      0.00%    100.00%
system.ruby.L1Cache_Controller.S.Ifetch::total        32131                      
system.ruby.L1Cache_Controller.S.L1_Replacement |         126    100.00%    100.00% |           0      0.00%    100.00% |           0      0.00%    100.00% |           0      0.00%    100.00% |           0      0.00%    100.00% |           0      0.00%    100.00% |           0      0.00%    100.00% |           0      0.00%    100.00%
system.ruby.L1Cache_Controller.S.L1_Replacement::total          126                      
system.ruby.L1Cache_Controller.E.Load    |        1042    100.00%    100.00% |           0      0.00%    100.00% |           0      0.00%    100.00% |           0      0.00%    100.00% |           0      0.00%    100.00% |           0      0.00%    100.00% |           0      0.00%    100.00% |           0      0.00%    100.00%
system.ruby.L1Cache_Controller.E.Load::total         1042                      
system.ruby.L1Cache_Controller.E.Store   |          23    100.00%    100.00% |           0      0.00%    100.00% |           0      0.00%    100.00% |           0      0.00%    100.00% |           0      0.00%    100.00% |           0      0.00%    100.00% |           0      0.00%    100.00% |           0      0.00%    100.00%
system.ruby.L1Cache_Controller.E.Store::total           23                      
system.ruby.L1Cache_Controller.E.L1_Replacement |           9    100.00%    100.00% |           0      0.00%    100.00% |           0      0.00%    100.00% |           0      0.00%    100.00% |           0      0.00%    100.00% |           0      0.00%    100.00% |           0      0.00%    100.00% |           0      0.00%    100.00%
system.ruby.L1Cache_Controller.E.L1_Replacement::total            9                      
system.ruby.L1Cache_Controller.M.Load    |        4340    100.00%    100.00% |           0      0.00%    100.00% |           0      0.00%    100.00% |           0      0.00%    100.00% |           0      0.00%    100.00% |           0      0.00%    100.00% |           0      0.00%    100.00% |           0      0.00%    100.00%
system.ruby.L1Cache_Controller.M.Load::total         4340                      
system.ruby.L1Cache_Controller.M.Store   |        4287    100.00%    100.00% |           0      0.00%    100.00% |           0      0.00%    100.00% |           0      0.00%    100.00% |           0      0.00%    100.00% |           0      0.00%    100.00% |           0      0.00%    100.00% |           0      0.00%    100.00%
system.ruby.L1Cache_Controller.M.Store::total         4287                      
system.ruby.L1Cache_Controller.M.L1_Replacement |          14    100.00%    100.00% |           0      0.00%    100.00% |           0      0.00%    100.00% |           0      0.00%    100.00% |           0      0.00%    100.00% |           0      0.00%    100.00% |           0      0.00%    100.00% |           0      0.00%    100.00%
system.ruby.L1Cache_Controller.M.L1_Replacement::total           14                      
system.ruby.L1Cache_Controller.IS.Data_Exclusive |          88    100.00%    100.00% |           0      0.00%    100.00% |           0      0.00%    100.00% |           0      0.00%    100.00% |           0      0.00%    100.00% |           0      0.00%    100.00% |           0      0.00%    100.00% |           0      0.00%    100.00%
system.ruby.L1Cache_Controller.IS.Data_Exclusive::total           88                      
system.ruby.L1Cache_Controller.IS.Data_all_Acks |         356    100.00%    100.00% |           0      0.00%    100.00% |           0      0.00%    100.00% |           0      0.00%    100.00% |           0      0.00%    100.00% |           0      0.00%    100.00% |           0      0.00%    100.00% |           0      0.00%    100.00%
system.ruby.L1Cache_Controller.IS.Data_all_Acks::total          356                      
system.ruby.L1Cache_Controller.IM.Data_all_Acks |          73    100.00%    100.00% |           0      0.00%    100.00% |           0      0.00%    100.00% |           0      0.00%    100.00% |           0      0.00%    100.00% |           0      0.00%    100.00% |           0      0.00%    100.00% |           0      0.00%    100.00%
system.ruby.L1Cache_Controller.IM.Data_all_Acks::total           73                      
system.ruby.L1Cache_Controller.M_I.Ifetch |           1    100.00%    100.00% |           0      0.00%    100.00% |           0      0.00%    100.00% |           0      0.00%    100.00% |           0      0.00%    100.00% |           0      0.00%    100.00% |           0      0.00%    100.00% |           0      0.00%    100.00%
system.ruby.L1Cache_Controller.M_I.Ifetch::total            1                      
system.ruby.L1Cache_Controller.M_I.WB_Ack |          23    100.00%    100.00% |           0      0.00%    100.00% |           0      0.00%    100.00% |           0      0.00%    100.00% |           0      0.00%    100.00% |           0      0.00%    100.00% |           0      0.00%    100.00% |           0      0.00%    100.00%
system.ruby.L1Cache_Controller.M_I.WB_Ack::total           23                      
system.ruby.L2Cache_Controller.L1_GET_INSTR          356      0.00%      0.00%
system.ruby.L2Cache_Controller.L1_GETS             88      0.00%      0.00%
system.ruby.L2Cache_Controller.L1_GETX             73      0.00%      0.00%
system.ruby.L2Cache_Controller.L1_PUTX             23      0.00%      0.00%
system.ruby.L2Cache_Controller.Mem_Data           502      0.00%      0.00%
system.ruby.L2Cache_Controller.Exclusive_Unblock          161      0.00%      0.00%
system.ruby.L2Cache_Controller.NP.L1_GET_INSTR          347      0.00%      0.00%
system.ruby.L2Cache_Controller.NP.L1_GETS           82      0.00%      0.00%
system.ruby.L2Cache_Controller.NP.L1_GETX           73      0.00%      0.00%
system.ruby.L2Cache_Controller.SS.L1_GET_INSTR            8      0.00%      0.00%
system.ruby.L2Cache_Controller.M.L1_GET_INSTR            1      0.00%      0.00%
system.ruby.L2Cache_Controller.M.L1_GETS            6      0.00%      0.00%
system.ruby.L2Cache_Controller.MT.L1_PUTX           23      0.00%      0.00%
system.ruby.L2Cache_Controller.ISS.Mem_Data           82      0.00%      0.00%
system.ruby.L2Cache_Controller.IS.Mem_Data          347      0.00%      0.00%
system.ruby.L2Cache_Controller.IM.Mem_Data           73      0.00%      0.00%
system.ruby.L2Cache_Controller.MT_MB.Exclusive_Unblock          161      0.00%      0.00%

---------- End Simulation Statistics   ----------
