
---------- Begin Simulation Statistics ----------
sim_seconds                                  0.003119                       # Number of seconds simulated
sim_ticks                                  3118760000                       # Number of ticks simulated
final_tick                                 3118760000                       # Number of ticks from beginning of simulation (restored from checkpoints and never reset)
sim_freq                                 1000000000000                       # Frequency of simulated ticks
host_inst_rate                                 143546                       # Simulator instruction rate (inst/s)
host_op_rate                                   326568                       # Simulator op (including micro ops) rate (op/s)
host_tick_rate                              271792094                       # Simulator tick rate (ticks/s)
host_mem_usage                                4505584                       # Number of bytes of host memory used
host_seconds                                    11.47                       # Real time elapsed on the host
sim_insts                                     1647162                       # Number of instructions simulated
sim_ops                                       3747292                       # Number of ops (including micro ops) simulated
system.voltage_domain.voltage                       1                       # Voltage in Volts
system.clk_domain.clock                          1000                       # Clock period in ticks
system.mem_ctrls.bytes_read::ruby.dir_cntrl0       144896                       # Number of bytes read from this memory
system.mem_ctrls.bytes_read::total             144896                       # Number of bytes read from this memory
system.mem_ctrls.num_reads::ruby.dir_cntrl0         1132                       # Number of read requests responded to by this memory
system.mem_ctrls.num_reads::total                1132                       # Number of read requests responded to by this memory
system.mem_ctrls.bw_read::ruby.dir_cntrl0     46459490                       # Total read bandwidth from this memory (bytes/s)
system.mem_ctrls.bw_read::total              46459490                       # Total read bandwidth from this memory (bytes/s)
system.mem_ctrls.bw_total::ruby.dir_cntrl0     46459490                       # Total bandwidth to/from this memory (bytes/s)
system.mem_ctrls.bw_total::total             46459490                       # Total bandwidth to/from this memory (bytes/s)
system.mem_ctrls.readReqs                        1132                       # Number of read requests accepted
system.mem_ctrls.writeReqs                          0                       # Number of write requests accepted
system.mem_ctrls.readBursts                      2264                       # Number of DRAM read bursts, including those serviced by the write queue
system.mem_ctrls.writeBursts                        0                       # Number of DRAM write bursts, including those merged in the write queue
system.mem_ctrls.bytesReadDRAM                 144896                       # Total number of bytes read from DRAM
system.mem_ctrls.bytesReadWrQ                       0                       # Total number of bytes read from write queue
system.mem_ctrls.bytesWritten                       0                       # Total number of bytes written to DRAM
system.mem_ctrls.bytesReadSys                  144896                       # Total read bytes from the system interface side
system.mem_ctrls.bytesWrittenSys                    0                       # Total written bytes from the system interface side
system.mem_ctrls.servicedByWrQ                      0                       # Number of DRAM read bursts serviced by the write queue
system.mem_ctrls.mergedWrBursts                     0                       # Number of DRAM write bursts merged with an existing one
system.mem_ctrls.neitherReadNorWriteReqs            0                       # Number of requests that are neither read nor write
system.mem_ctrls.perBankRdBursts::0               188                       # Per bank write bursts
system.mem_ctrls.perBankRdBursts::1               246                       # Per bank write bursts
system.mem_ctrls.perBankRdBursts::2               336                       # Per bank write bursts
system.mem_ctrls.perBankRdBursts::3               208                       # Per bank write bursts
system.mem_ctrls.perBankRdBursts::4               182                       # Per bank write bursts
system.mem_ctrls.perBankRdBursts::5               150                       # Per bank write bursts
system.mem_ctrls.perBankRdBursts::6               216                       # Per bank write bursts
system.mem_ctrls.perBankRdBursts::7               128                       # Per bank write bursts
system.mem_ctrls.perBankRdBursts::8                84                       # Per bank write bursts
system.mem_ctrls.perBankRdBursts::9               102                       # Per bank write bursts
system.mem_ctrls.perBankRdBursts::10               18                       # Per bank write bursts
system.mem_ctrls.perBankRdBursts::11               14                       # Per bank write bursts
system.mem_ctrls.perBankRdBursts::12               84                       # Per bank write bursts
system.mem_ctrls.perBankRdBursts::13               96                       # Per bank write bursts
system.mem_ctrls.perBankRdBursts::14               88                       # Per bank write bursts
system.mem_ctrls.perBankRdBursts::15              124                       # Per bank write bursts
system.mem_ctrls.perBankWrBursts::0                 0                       # Per bank write bursts
system.mem_ctrls.perBankWrBursts::1                 0                       # Per bank write bursts
system.mem_ctrls.perBankWrBursts::2                 0                       # Per bank write bursts
system.mem_ctrls.perBankWrBursts::3                 0                       # Per bank write bursts
system.mem_ctrls.perBankWrBursts::4                 0                       # Per bank write bursts
system.mem_ctrls.perBankWrBursts::5                 0                       # Per bank write bursts
system.mem_ctrls.perBankWrBursts::6                 0                       # Per bank write bursts
system.mem_ctrls.perBankWrBursts::7                 0                       # Per bank write bursts
system.mem_ctrls.perBankWrBursts::8                 0                       # Per bank write bursts
system.mem_ctrls.perBankWrBursts::9                 0                       # Per bank write bursts
system.mem_ctrls.perBankWrBursts::10                0                       # Per bank write bursts
system.mem_ctrls.perBankWrBursts::11                0                       # Per bank write bursts
system.mem_ctrls.perBankWrBursts::12                0                       # Per bank write bursts
system.mem_ctrls.perBankWrBursts::13                0                       # Per bank write bursts
system.mem_ctrls.perBankWrBursts::14                0                       # Per bank write bursts
system.mem_ctrls.perBankWrBursts::15                0                       # Per bank write bursts
system.mem_ctrls.numRdRetry                         0                       # Number of times read queue was full causing retry
system.mem_ctrls.numWrRetry                         0                       # Number of times write queue was full causing retry
system.mem_ctrls.totGap                    3118663500                       # Total gap between requests
system.mem_ctrls.readPktSize::0                     0                       # Read request sizes (log2)
system.mem_ctrls.readPktSize::1                     0                       # Read request sizes (log2)
system.mem_ctrls.readPktSize::2                     0                       # Read request sizes (log2)
system.mem_ctrls.readPktSize::3                     0                       # Read request sizes (log2)
system.mem_ctrls.readPktSize::4                     0                       # Read request sizes (log2)
system.mem_ctrls.readPktSize::5                     0                       # Read request sizes (log2)
system.mem_ctrls.readPktSize::6                  2264                       # Read request sizes (log2)
system.mem_ctrls.writePktSize::0                    0                       # Write request sizes (log2)
system.mem_ctrls.writePktSize::1                    0                       # Write request sizes (log2)
system.mem_ctrls.writePktSize::2                    0                       # Write request sizes (log2)
system.mem_ctrls.writePktSize::3                    0                       # Write request sizes (log2)
system.mem_ctrls.writePktSize::4                    0                       # Write request sizes (log2)
system.mem_ctrls.writePktSize::5                    0                       # Write request sizes (log2)
system.mem_ctrls.writePktSize::6                    0                       # Write request sizes (log2)
system.mem_ctrls.rdQLenPdf::0                    1082                       # What read queue length does an incoming req see
system.mem_ctrls.rdQLenPdf::1                    1082                       # What read queue length does an incoming req see
system.mem_ctrls.rdQLenPdf::2                      36                       # What read queue length does an incoming req see
system.mem_ctrls.rdQLenPdf::3                      36                       # What read queue length does an incoming req see
system.mem_ctrls.rdQLenPdf::4                      14                       # What read queue length does an incoming req see
system.mem_ctrls.rdQLenPdf::5                      14                       # What read queue length does an incoming req see
system.mem_ctrls.rdQLenPdf::6                       0                       # What read queue length does an incoming req see
system.mem_ctrls.rdQLenPdf::7                       0                       # What read queue length does an incoming req see
system.mem_ctrls.rdQLenPdf::8                       0                       # What read queue length does an incoming req see
system.mem_ctrls.rdQLenPdf::9                       0                       # What read queue length does an incoming req see
system.mem_ctrls.rdQLenPdf::10                      0                       # What read queue length does an incoming req see
system.mem_ctrls.rdQLenPdf::11                      0                       # What read queue length does an incoming req see
system.mem_ctrls.rdQLenPdf::12                      0                       # What read queue length does an incoming req see
system.mem_ctrls.rdQLenPdf::13                      0                       # What read queue length does an incoming req see
system.mem_ctrls.rdQLenPdf::14                      0                       # What read queue length does an incoming req see
system.mem_ctrls.rdQLenPdf::15                      0                       # What read queue length does an incoming req see
system.mem_ctrls.rdQLenPdf::16                      0                       # What read queue length does an incoming req see
system.mem_ctrls.rdQLenPdf::17                      0                       # What read queue length does an incoming req see
system.mem_ctrls.rdQLenPdf::18                      0                       # What read queue length does an incoming req see
system.mem_ctrls.rdQLenPdf::19                      0                       # What read queue length does an incoming req see
system.mem_ctrls.rdQLenPdf::20                      0                       # What read queue length does an incoming req see
system.mem_ctrls.rdQLenPdf::21                      0                       # What read queue length does an incoming req see
system.mem_ctrls.rdQLenPdf::22                      0                       # What read queue length does an incoming req see
system.mem_ctrls.rdQLenPdf::23                      0                       # What read queue length does an incoming req see
system.mem_ctrls.rdQLenPdf::24                      0                       # What read queue length does an incoming req see
system.mem_ctrls.rdQLenPdf::25                      0                       # What read queue length does an incoming req see
system.mem_ctrls.rdQLenPdf::26                      0                       # What read queue length does an incoming req see
system.mem_ctrls.rdQLenPdf::27                      0                       # What read queue length does an incoming req see
system.mem_ctrls.rdQLenPdf::28                      0                       # What read queue length does an incoming req see
system.mem_ctrls.rdQLenPdf::29                      0                       # What read queue length does an incoming req see
system.mem_ctrls.rdQLenPdf::30                      0                       # What read queue length does an incoming req see
system.mem_ctrls.rdQLenPdf::31                      0                       # What read queue length does an incoming req see
system.mem_ctrls.wrQLenPdf::0                       0                       # What write queue length does an incoming req see
system.mem_ctrls.wrQLenPdf::1                       0                       # What write queue length does an incoming req see
system.mem_ctrls.wrQLenPdf::2                       0                       # What write queue length does an incoming req see
system.mem_ctrls.wrQLenPdf::3                       0                       # What write queue length does an incoming req see
system.mem_ctrls.wrQLenPdf::4                       0                       # What write queue length does an incoming req see
system.mem_ctrls.wrQLenPdf::5                       0                       # What write queue length does an incoming req see
system.mem_ctrls.wrQLenPdf::6                       0                       # What write queue length does an incoming req see
system.mem_ctrls.wrQLenPdf::7                       0                       # What write queue length does an incoming req see
system.mem_ctrls.wrQLenPdf::8                       0                       # What write queue length does an incoming req see
system.mem_ctrls.wrQLenPdf::9                       0                       # What write queue length does an incoming req see
system.mem_ctrls.wrQLenPdf::10                      0                       # What write queue length does an incoming req see
system.mem_ctrls.wrQLenPdf::11                      0                       # What write queue length does an incoming req see
system.mem_ctrls.wrQLenPdf::12                      0                       # What write queue length does an incoming req see
system.mem_ctrls.wrQLenPdf::13                      0                       # What write queue length does an incoming req see
system.mem_ctrls.wrQLenPdf::14                      0                       # What write queue length does an incoming req see
system.mem_ctrls.wrQLenPdf::15                      0                       # What write queue length does an incoming req see
system.mem_ctrls.wrQLenPdf::16                      0                       # What write queue length does an incoming req see
system.mem_ctrls.wrQLenPdf::17                      0                       # What write queue length does an incoming req see
system.mem_ctrls.wrQLenPdf::18                      0                       # What write queue length does an incoming req see
system.mem_ctrls.wrQLenPdf::19                      0                       # What write queue length does an incoming req see
system.mem_ctrls.wrQLenPdf::20                      0                       # What write queue length does an incoming req see
system.mem_ctrls.wrQLenPdf::21                      0                       # What write queue length does an incoming req see
system.mem_ctrls.wrQLenPdf::22                      0                       # What write queue length does an incoming req see
system.mem_ctrls.wrQLenPdf::23                      0                       # What write queue length does an incoming req see
system.mem_ctrls.wrQLenPdf::24                      0                       # What write queue length does an incoming req see
system.mem_ctrls.wrQLenPdf::25                      0                       # What write queue length does an incoming req see
system.mem_ctrls.wrQLenPdf::26                      0                       # What write queue length does an incoming req see
system.mem_ctrls.wrQLenPdf::27                      0                       # What write queue length does an incoming req see
system.mem_ctrls.wrQLenPdf::28                      0                       # What write queue length does an incoming req see
system.mem_ctrls.wrQLenPdf::29                      0                       # What write queue length does an incoming req see
system.mem_ctrls.wrQLenPdf::30                      0                       # What write queue length does an incoming req see
system.mem_ctrls.wrQLenPdf::31                      0                       # What write queue length does an incoming req see
system.mem_ctrls.wrQLenPdf::32                      0                       # What write queue length does an incoming req see
system.mem_ctrls.wrQLenPdf::33                      0                       # What write queue length does an incoming req see
system.mem_ctrls.wrQLenPdf::34                      0                       # What write queue length does an incoming req see
system.mem_ctrls.wrQLenPdf::35                      0                       # What write queue length does an incoming req see
system.mem_ctrls.wrQLenPdf::36                      0                       # What write queue length does an incoming req see
system.mem_ctrls.wrQLenPdf::37                      0                       # What write queue length does an incoming req see
system.mem_ctrls.wrQLenPdf::38                      0                       # What write queue length does an incoming req see
system.mem_ctrls.wrQLenPdf::39                      0                       # What write queue length does an incoming req see
system.mem_ctrls.wrQLenPdf::40                      0                       # What write queue length does an incoming req see
system.mem_ctrls.wrQLenPdf::41                      0                       # What write queue length does an incoming req see
system.mem_ctrls.wrQLenPdf::42                      0                       # What write queue length does an incoming req see
system.mem_ctrls.wrQLenPdf::43                      0                       # What write queue length does an incoming req see
system.mem_ctrls.wrQLenPdf::44                      0                       # What write queue length does an incoming req see
system.mem_ctrls.wrQLenPdf::45                      0                       # What write queue length does an incoming req see
system.mem_ctrls.wrQLenPdf::46                      0                       # What write queue length does an incoming req see
system.mem_ctrls.wrQLenPdf::47                      0                       # What write queue length does an incoming req see
system.mem_ctrls.wrQLenPdf::48                      0                       # What write queue length does an incoming req see
system.mem_ctrls.wrQLenPdf::49                      0                       # What write queue length does an incoming req see
system.mem_ctrls.wrQLenPdf::50                      0                       # What write queue length does an incoming req see
system.mem_ctrls.wrQLenPdf::51                      0                       # What write queue length does an incoming req see
system.mem_ctrls.wrQLenPdf::52                      0                       # What write queue length does an incoming req see
system.mem_ctrls.wrQLenPdf::53                      0                       # What write queue length does an incoming req see
system.mem_ctrls.wrQLenPdf::54                      0                       # What write queue length does an incoming req see
system.mem_ctrls.wrQLenPdf::55                      0                       # What write queue length does an incoming req see
system.mem_ctrls.wrQLenPdf::56                      0                       # What write queue length does an incoming req see
system.mem_ctrls.wrQLenPdf::57                      0                       # What write queue length does an incoming req see
system.mem_ctrls.wrQLenPdf::58                      0                       # What write queue length does an incoming req see
system.mem_ctrls.wrQLenPdf::59                      0                       # What write queue length does an incoming req see
system.mem_ctrls.wrQLenPdf::60                      0                       # What write queue length does an incoming req see
system.mem_ctrls.wrQLenPdf::61                      0                       # What write queue length does an incoming req see
system.mem_ctrls.wrQLenPdf::62                      0                       # What write queue length does an incoming req see
system.mem_ctrls.wrQLenPdf::63                      0                       # What write queue length does an incoming req see
system.mem_ctrls.bytesPerActivate::samples          413                       # Bytes accessed per row activation
system.mem_ctrls.bytesPerActivate::mean    344.949153                       # Bytes accessed per row activation
system.mem_ctrls.bytesPerActivate::gmean   242.661612                       # Bytes accessed per row activation
system.mem_ctrls.bytesPerActivate::stdev   319.506218                       # Bytes accessed per row activation
system.mem_ctrls.bytesPerActivate::0-127            1      0.24%      0.24% # Bytes accessed per row activation
system.mem_ctrls.bytesPerActivate::128-255          219     53.03%     53.27% # Bytes accessed per row activation
system.mem_ctrls.bytesPerActivate::256-383           64     15.50%     68.77% # Bytes accessed per row activation
system.mem_ctrls.bytesPerActivate::384-511           27      6.54%     75.30% # Bytes accessed per row activation
system.mem_ctrls.bytesPerActivate::512-639           18      4.36%     79.66% # Bytes accessed per row activation
system.mem_ctrls.bytesPerActivate::640-767            9      2.18%     81.84% # Bytes accessed per row activation
system.mem_ctrls.bytesPerActivate::768-895           13      3.15%     84.99% # Bytes accessed per row activation
system.mem_ctrls.bytesPerActivate::896-1023            7      1.69%     86.68% # Bytes accessed per row activation
system.mem_ctrls.bytesPerActivate::1024-1151           55     13.32%    100.00% # Bytes accessed per row activation
system.mem_ctrls.bytesPerActivate::total          413                       # Bytes accessed per row activation
system.mem_ctrls.totQLat                     27579744                       # Total ticks spent queuing
system.mem_ctrls.totMemAccLat                70029744                       # Total ticks spent from burst creation until serviced by the DRAM
system.mem_ctrls.totBusLat                   11320000                       # Total ticks spent in databus transfers
system.mem_ctrls.avgQLat                     12181.87                       # Average queueing delay per DRAM burst
system.mem_ctrls.avgBusLat                    5000.00                       # Average bus latency per DRAM burst
system.mem_ctrls.avgMemAccLat                30931.87                       # Average memory access latency per DRAM burst
system.mem_ctrls.avgRdBW                        46.46                       # Average DRAM read bandwidth in MiByte/s
system.mem_ctrls.avgWrBW                         0.00                       # Average achieved write bandwidth in MiByte/s
system.mem_ctrls.avgRdBWSys                     46.46                       # Average system read bandwidth in MiByte/s
system.mem_ctrls.avgWrBWSys                      0.00                       # Average system write bandwidth in MiByte/s
system.mem_ctrls.peakBW                      12800.00                       # Theoretical peak bandwidth in MiByte/s
system.mem_ctrls.busUtil                         0.36                       # Data bus utilization in percentage
system.mem_ctrls.busUtilRead                     0.36                       # Data bus utilization in percentage for reads
system.mem_ctrls.busUtilWrite                    0.00                       # Data bus utilization in percentage for writes
system.mem_ctrls.avgRdQLen                       2.00                       # Average read queue length when enqueuing
system.mem_ctrls.avgWrQLen                       0.00                       # Average write queue length when enqueuing
system.mem_ctrls.readRowHits                     1842                       # Number of row buffer hits during reads
system.mem_ctrls.writeRowHits                       0                       # Number of row buffer hits during writes
system.mem_ctrls.readRowHitRate                 81.36                       # Row buffer hit rate for reads
system.mem_ctrls.writeRowHitRate                  nan                       # Row buffer hit rate for writes
system.mem_ctrls.avgGap                    2755003.09                       # Average gap between requests
system.mem_ctrls.pageHitRate                    81.36                       # Row buffer hit rate, read and write combined
system.mem_ctrls_0.actEnergy                  2245320                       # Energy for activate commands per rank (pJ)
system.mem_ctrls_0.preEnergy                  1225125                       # Energy for precharge commands per rank (pJ)
system.mem_ctrls_0.readEnergy                12636000                       # Energy for read commands per rank (pJ)
system.mem_ctrls_0.writeEnergy                      0                       # Energy for write commands per rank (pJ)
system.mem_ctrls_0.refreshEnergy            203424000                       # Energy for refresh commands per rank (pJ)
system.mem_ctrls_0.actBackEnergy            505122030                       # Energy for active background per rank (pJ)
system.mem_ctrls_0.preBackEnergy           1425766500                       # Energy for precharge background per rank (pJ)
system.mem_ctrls_0.totalEnergy             2150418975                       # Total energy per rank (pJ)
system.mem_ctrls_0.averagePower            690.396363                       # Core power per rank (mW)
system.mem_ctrls_0.memoryStateTime::IDLE   2369121500                       # Time in different power states
system.mem_ctrls_0.memoryStateTime::REF     104000000                       # Time in different power states
system.mem_ctrls_0.memoryStateTime::PRE_PDN            0                       # Time in different power states
system.mem_ctrls_0.memoryStateTime::ACT     642162500                       # Time in different power states
system.mem_ctrls_0.memoryStateTime::ACT_PDN            0                       # Time in different power states
system.mem_ctrls_1.actEnergy                   861840                       # Energy for activate commands per rank (pJ)
system.mem_ctrls_1.preEnergy                   470250                       # Energy for precharge commands per rank (pJ)
system.mem_ctrls_1.readEnergy                 4680000                       # Energy for read commands per rank (pJ)
system.mem_ctrls_1.writeEnergy                      0                       # Energy for write commands per rank (pJ)
system.mem_ctrls_1.refreshEnergy            203424000                       # Energy for refresh commands per rank (pJ)
system.mem_ctrls_1.actBackEnergy            147230145                       # Energy for active background per rank (pJ)
system.mem_ctrls_1.preBackEnergy           1739706750                       # Energy for precharge background per rank (pJ)
system.mem_ctrls_1.totalEnergy             2096372985                       # Total energy per rank (pJ)
system.mem_ctrls_1.averagePower            673.044788                       # Core power per rank (mW)
system.mem_ctrls_1.memoryStateTime::IDLE   2893996000                       # Time in different power states
system.mem_ctrls_1.memoryStateTime::REF     104000000                       # Time in different power states
system.mem_ctrls_1.memoryStateTime::PRE_PDN            0                       # Time in different power states
system.mem_ctrls_1.memoryStateTime::ACT     117089500                       # Time in different power states
system.mem_ctrls_1.memoryStateTime::ACT_PDN            0                       # Time in different power states
system.ruby_clk_domain.clock                      500                       # Clock period in ticks
system.ruby.phys_mem.bytes_read::cpu0.inst     17370208                       # Number of bytes read from this memory
system.ruby.phys_mem.bytes_read::cpu0.data      2041034                       # Number of bytes read from this memory
system.ruby.phys_mem.bytes_read::gpu.ce         25440                       # Number of bytes read from this memory
system.ruby.phys_mem.bytes_read::gpu.shader_cores0.data       216640                       # Number of bytes read from this memory
system.ruby.phys_mem.bytes_read::gpu.shader_cores0.inst           96                       # Number of bytes read from this memory
system.ruby.phys_mem.bytes_read::gpu.shader_cores1.data       325440                       # Number of bytes read from this memory
system.ruby.phys_mem.bytes_read::gpu.shader_cores1.inst          128                       # Number of bytes read from this memory
system.ruby.phys_mem.bytes_read::gpu.shader_cores2.data       216640                       # Number of bytes read from this memory
system.ruby.phys_mem.bytes_read::gpu.shader_cores2.inst           96                       # Number of bytes read from this memory
system.ruby.phys_mem.bytes_read::gpu.shader_cores3.data       216640                       # Number of bytes read from this memory
system.ruby.phys_mem.bytes_read::gpu.shader_cores3.inst           96                       # Number of bytes read from this memory
system.ruby.phys_mem.bytes_read::total       20412458                       # Number of bytes read from this memory
system.ruby.phys_mem.bytes_inst_read::cpu0.inst     17370208                       # Number of instructions bytes read from this memory
system.ruby.phys_mem.bytes_inst_read::gpu.shader_cores0.inst           96                       # Number of instructions bytes read from this memory
system.ruby.phys_mem.bytes_inst_read::gpu.shader_cores1.inst          128                       # Number of instructions bytes read from this memory
system.ruby.phys_mem.bytes_inst_read::gpu.shader_cores2.inst           96                       # Number of instructions bytes read from this memory
system.ruby.phys_mem.bytes_inst_read::gpu.shader_cores3.inst           96                       # Number of instructions bytes read from this memory
system.ruby.phys_mem.bytes_inst_read::total     17370624                       # Number of instructions bytes read from this memory
system.ruby.phys_mem.bytes_written::cpu0.data      2225738                       # Number of bytes written to this memory
system.ruby.phys_mem.bytes_written::gpu.ce        25440                       # Number of bytes written to this memory
system.ruby.phys_mem.bytes_written::gpu.shader_cores0.data          800                       # Number of bytes written to this memory
system.ruby.phys_mem.bytes_written::gpu.shader_cores1.data        14400                       # Number of bytes written to this memory
system.ruby.phys_mem.bytes_written::gpu.shader_cores2.data          800                       # Number of bytes written to this memory
system.ruby.phys_mem.bytes_written::gpu.shader_cores3.data          800                       # Number of bytes written to this memory
system.ruby.phys_mem.bytes_written::total      2267978                       # Number of bytes written to this memory
system.ruby.phys_mem.num_reads::cpu0.inst      2171276                       # Number of read requests responded to by this memory
system.ruby.phys_mem.num_reads::cpu0.data       366060                       # Number of read requests responded to by this memory
system.ruby.phys_mem.num_reads::gpu.ce            219                       # Number of read requests responded to by this memory
system.ruby.phys_mem.num_reads::gpu.shader_cores0.data         3590                       # Number of read requests responded to by this memory
system.ruby.phys_mem.num_reads::gpu.shader_cores0.inst            6                       # Number of read requests responded to by this memory
system.ruby.phys_mem.num_reads::gpu.shader_cores1.data         6990                       # Number of read requests responded to by this memory
system.ruby.phys_mem.num_reads::gpu.shader_cores1.inst            8                       # Number of read requests responded to by this memory
system.ruby.phys_mem.num_reads::gpu.shader_cores2.data         3590                       # Number of read requests responded to by this memory
system.ruby.phys_mem.num_reads::gpu.shader_cores2.inst            6                       # Number of read requests responded to by this memory
system.ruby.phys_mem.num_reads::gpu.shader_cores3.data         3590                       # Number of read requests responded to by this memory
system.ruby.phys_mem.num_reads::gpu.shader_cores3.inst            6                       # Number of read requests responded to by this memory
system.ruby.phys_mem.num_reads::total         2555341                       # Number of read requests responded to by this memory
system.ruby.phys_mem.num_writes::cpu0.data       322398                       # Number of write requests responded to by this memory
system.ruby.phys_mem.num_writes::gpu.ce           219                       # Number of write requests responded to by this memory
system.ruby.phys_mem.num_writes::gpu.shader_cores0.data            8                       # Number of write requests responded to by this memory
system.ruby.phys_mem.num_writes::gpu.shader_cores1.data          231                       # Number of write requests responded to by this memory
system.ruby.phys_mem.num_writes::gpu.shader_cores2.data            8                       # Number of write requests responded to by this memory
system.ruby.phys_mem.num_writes::gpu.shader_cores3.data            8                       # Number of write requests responded to by this memory
system.ruby.phys_mem.num_writes::total         322872                       # Number of write requests responded to by this memory
system.ruby.phys_mem.bw_read::cpu0.inst    5569587913                       # Total read bandwidth from this memory (bytes/s)
system.ruby.phys_mem.bw_read::cpu0.data     654437661                       # Total read bandwidth from this memory (bytes/s)
system.ruby.phys_mem.bw_read::gpu.ce          8157088                       # Total read bandwidth from this memory (bytes/s)
system.ruby.phys_mem.bw_read::gpu.shader_cores0.data     69463505                       # Total read bandwidth from this memory (bytes/s)
system.ruby.phys_mem.bw_read::gpu.shader_cores0.inst        30781                       # Total read bandwidth from this memory (bytes/s)
system.ruby.phys_mem.bw_read::gpu.shader_cores1.data    104349164                       # Total read bandwidth from this memory (bytes/s)
system.ruby.phys_mem.bw_read::gpu.shader_cores1.inst        41042                       # Total read bandwidth from this memory (bytes/s)
system.ruby.phys_mem.bw_read::gpu.shader_cores2.data     69463505                       # Total read bandwidth from this memory (bytes/s)
system.ruby.phys_mem.bw_read::gpu.shader_cores2.inst        30781                       # Total read bandwidth from this memory (bytes/s)
system.ruby.phys_mem.bw_read::gpu.shader_cores3.data     69463505                       # Total read bandwidth from this memory (bytes/s)
system.ruby.phys_mem.bw_read::gpu.shader_cores3.inst        30781                       # Total read bandwidth from this memory (bytes/s)
system.ruby.phys_mem.bw_read::total        6545055727                       # Total read bandwidth from this memory (bytes/s)
system.ruby.phys_mem.bw_inst_read::cpu0.inst   5569587913                       # Instruction read bandwidth from this memory (bytes/s)
system.ruby.phys_mem.bw_inst_read::gpu.shader_cores0.inst        30781                       # Instruction read bandwidth from this memory (bytes/s)
system.ruby.phys_mem.bw_inst_read::gpu.shader_cores1.inst        41042                       # Instruction read bandwidth from this memory (bytes/s)
system.ruby.phys_mem.bw_inst_read::gpu.shader_cores2.inst        30781                       # Instruction read bandwidth from this memory (bytes/s)
system.ruby.phys_mem.bw_inst_read::gpu.shader_cores3.inst        30781                       # Instruction read bandwidth from this memory (bytes/s)
system.ruby.phys_mem.bw_inst_read::total   5569721299                       # Instruction read bandwidth from this memory (bytes/s)
system.ruby.phys_mem.bw_write::cpu0.data    713661199                       # Write bandwidth from this memory (bytes/s)
system.ruby.phys_mem.bw_write::gpu.ce         8157088                       # Write bandwidth from this memory (bytes/s)
system.ruby.phys_mem.bw_write::gpu.shader_cores0.data       256512                       # Write bandwidth from this memory (bytes/s)
system.ruby.phys_mem.bw_write::gpu.shader_cores1.data      4617220                       # Write bandwidth from this memory (bytes/s)
system.ruby.phys_mem.bw_write::gpu.shader_cores2.data       256512                       # Write bandwidth from this memory (bytes/s)
system.ruby.phys_mem.bw_write::gpu.shader_cores3.data       256512                       # Write bandwidth from this memory (bytes/s)
system.ruby.phys_mem.bw_write::total        727205043                       # Write bandwidth from this memory (bytes/s)
system.ruby.phys_mem.bw_total::cpu0.inst   5569587913                       # Total bandwidth to/from this memory (bytes/s)
system.ruby.phys_mem.bw_total::cpu0.data   1368098860                       # Total bandwidth to/from this memory (bytes/s)
system.ruby.phys_mem.bw_total::gpu.ce        16314176                       # Total bandwidth to/from this memory (bytes/s)
system.ruby.phys_mem.bw_total::gpu.shader_cores0.data     69720017                       # Total bandwidth to/from this memory (bytes/s)
system.ruby.phys_mem.bw_total::gpu.shader_cores0.inst        30781                       # Total bandwidth to/from this memory (bytes/s)
system.ruby.phys_mem.bw_total::gpu.shader_cores1.data    108966384                       # Total bandwidth to/from this memory (bytes/s)
system.ruby.phys_mem.bw_total::gpu.shader_cores1.inst        41042                       # Total bandwidth to/from this memory (bytes/s)
system.ruby.phys_mem.bw_total::gpu.shader_cores2.data     69720017                       # Total bandwidth to/from this memory (bytes/s)
system.ruby.phys_mem.bw_total::gpu.shader_cores2.inst        30781                       # Total bandwidth to/from this memory (bytes/s)
system.ruby.phys_mem.bw_total::gpu.shader_cores3.data     69720017                       # Total bandwidth to/from this memory (bytes/s)
system.ruby.phys_mem.bw_total::gpu.shader_cores3.inst        30781                       # Total bandwidth to/from this memory (bytes/s)
system.ruby.phys_mem.bw_total::total       7272260770                       # Total bandwidth to/from this memory (bytes/s)
system.cpu_voltage_domain.voltage                   1                       # Voltage in Volts
system.cpu_clk_domain.clock                       500                       # Clock period in ticks
system.cpu0.apic_clk_domain.clock                8000                       # Clock period in ticks
system.cpu0.workload.num_syscalls                  34                       # Number of system calls
system.cpu0.numCycles                         6237520                       # number of cpu cycles simulated
system.cpu0.numWorkItemsStarted                     1                       # number of work items this cpu started
system.cpu0.numWorkItemsCompleted                   1                       # number of work items this cpu completed
system.cpu0.committedInsts                    1647162                       # Number of instructions committed
system.cpu0.committedOps                      3747292                       # Number of ops (including micro ops) committed
system.cpu0.num_int_alu_accesses              3462597                       # Number of integer alu accesses
system.cpu0.num_fp_alu_accesses                242350                       # Number of float alu accesses
system.cpu0.num_func_calls                      43365                       # number of times a function call or return occured
system.cpu0.num_conditional_control_insts       410573                       # number of instructions that are conditional controls
system.cpu0.num_int_insts                     3462597                       # number of integer instructions
system.cpu0.num_fp_insts                       242350                       # number of float instructions
system.cpu0.num_int_register_reads            6895071                       # number of times the integer registers were read
system.cpu0.num_int_register_writes           2735687                       # number of times the integer registers were written
system.cpu0.num_fp_register_reads              251389                       # number of times the floating registers were read
system.cpu0.num_fp_register_writes             201950                       # number of times the floating registers were written
system.cpu0.num_cc_register_reads             2814789                       # number of times the CC registers were read
system.cpu0.num_cc_register_writes            1216053                       # number of times the CC registers were written
system.cpu0.num_mem_refs                       687577                       # number of memory refs
system.cpu0.num_load_insts                     365344                       # Number of load instructions
system.cpu0.num_store_insts                    322233                       # Number of store instructions
system.cpu0.num_idle_cycles              361468.121884                       # Number of idle cycles
system.cpu0.num_busy_cycles              5876051.878116                       # Number of busy cycles
system.cpu0.not_idle_fraction                0.942049                       # Percentage of non-idle cycles
system.cpu0.idle_fraction                    0.057951                       # Percentage of idle cycles
system.cpu0.Branches                           484939                       # Number of branches fetched
system.cpu0.op_class::No_OpClass               147339      3.93%      3.93% # Class of executed instruction
system.cpu0.op_class::IntAlu                  2763309     73.74%     77.67% # Class of executed instruction
system.cpu0.op_class::IntMult                     454      0.01%     77.69% # Class of executed instruction
system.cpu0.op_class::IntDiv                     9856      0.26%     77.95% # Class of executed instruction
system.cpu0.op_class::FloatAdd                 138757      3.70%     81.65% # Class of executed instruction
system.cpu0.op_class::FloatCmp                      0      0.00%     81.65% # Class of executed instruction
system.cpu0.op_class::FloatCvt                      0      0.00%     81.65% # Class of executed instruction
system.cpu0.op_class::FloatMult                     0      0.00%     81.65% # Class of executed instruction
system.cpu0.op_class::FloatDiv                      0      0.00%     81.65% # Class of executed instruction
system.cpu0.op_class::FloatSqrt                     0      0.00%     81.65% # Class of executed instruction
system.cpu0.op_class::SimdAdd                       0      0.00%     81.65% # Class of executed instruction
system.cpu0.op_class::SimdAddAcc                    0      0.00%     81.65% # Class of executed instruction
system.cpu0.op_class::SimdAlu                       0      0.00%     81.65% # Class of executed instruction
system.cpu0.op_class::SimdCmp                       0      0.00%     81.65% # Class of executed instruction
system.cpu0.op_class::SimdCvt                       0      0.00%     81.65% # Class of executed instruction
system.cpu0.op_class::SimdMisc                      0      0.00%     81.65% # Class of executed instruction
system.cpu0.op_class::SimdMult                      0      0.00%     81.65% # Class of executed instruction
system.cpu0.op_class::SimdMultAcc                   0      0.00%     81.65% # Class of executed instruction
system.cpu0.op_class::SimdShift                     0      0.00%     81.65% # Class of executed instruction
system.cpu0.op_class::SimdShiftAcc                  0      0.00%     81.65% # Class of executed instruction
system.cpu0.op_class::SimdSqrt                      0      0.00%     81.65% # Class of executed instruction
system.cpu0.op_class::SimdFloatAdd                  0      0.00%     81.65% # Class of executed instruction
system.cpu0.op_class::SimdFloatAlu                  0      0.00%     81.65% # Class of executed instruction
system.cpu0.op_class::SimdFloatCmp                  0      0.00%     81.65% # Class of executed instruction
system.cpu0.op_class::SimdFloatCvt                  0      0.00%     81.65% # Class of executed instruction
system.cpu0.op_class::SimdFloatDiv                  0      0.00%     81.65% # Class of executed instruction
system.cpu0.op_class::SimdFloatMisc                 0      0.00%     81.65% # Class of executed instruction
system.cpu0.op_class::SimdFloatMult                 0      0.00%     81.65% # Class of executed instruction
system.cpu0.op_class::SimdFloatMultAcc              0      0.00%     81.65% # Class of executed instruction
system.cpu0.op_class::SimdFloatSqrt                 0      0.00%     81.65% # Class of executed instruction
system.cpu0.op_class::MemRead                  365344      9.75%     91.40% # Class of executed instruction
system.cpu0.op_class::MemWrite                 322233      8.60%    100.00% # Class of executed instruction
system.cpu0.op_class::IprAccess                     0      0.00%    100.00% # Class of executed instruction
system.cpu0.op_class::InstPrefetch                  0      0.00%    100.00% # Class of executed instruction
system.cpu0.op_class::total                   3747292                       # Class of executed instruction
system.cpu1.apic_clk_domain.clock                8000                       # Clock period in ticks
system.cpu1.numCycles                               0                       # number of cpu cycles simulated
system.cpu1.numWorkItemsStarted                     0                       # number of work items this cpu started
system.cpu1.numWorkItemsCompleted                   0                       # number of work items this cpu completed
system.cpu1.committedInsts                          0                       # Number of instructions committed
system.cpu1.committedOps                            0                       # Number of ops (including micro ops) committed
system.cpu1.num_int_alu_accesses                    0                       # Number of integer alu accesses
system.cpu1.num_fp_alu_accesses                     0                       # Number of float alu accesses
system.cpu1.num_func_calls                          0                       # number of times a function call or return occured
system.cpu1.num_conditional_control_insts            0                       # number of instructions that are conditional controls
system.cpu1.num_int_insts                           0                       # number of integer instructions
system.cpu1.num_fp_insts                            0                       # number of float instructions
system.cpu1.num_int_register_reads                  0                       # number of times the integer registers were read
system.cpu1.num_int_register_writes                 0                       # number of times the integer registers were written
system.cpu1.num_fp_register_reads                   0                       # number of times the floating registers were read
system.cpu1.num_fp_register_writes                  0                       # number of times the floating registers were written
system.cpu1.num_mem_refs                            0                       # number of memory refs
system.cpu1.num_load_insts                          0                       # Number of load instructions
system.cpu1.num_store_insts                         0                       # Number of store instructions
system.cpu1.num_idle_cycles                         0                       # Number of idle cycles
system.cpu1.num_busy_cycles                         0                       # Number of busy cycles
system.cpu1.not_idle_fraction                       0                       # Percentage of non-idle cycles
system.cpu1.idle_fraction                           1                       # Percentage of idle cycles
system.cpu1.op_class::No_OpClass                    0                       # Class of executed instruction
system.cpu1.op_class::IntAlu                        0                       # Class of executed instruction
system.cpu1.op_class::IntMult                       0                       # Class of executed instruction
system.cpu1.op_class::IntDiv                        0                       # Class of executed instruction
system.cpu1.op_class::FloatAdd                      0                       # Class of executed instruction
system.cpu1.op_class::FloatCmp                      0                       # Class of executed instruction
system.cpu1.op_class::FloatCvt                      0                       # Class of executed instruction
system.cpu1.op_class::FloatMult                     0                       # Class of executed instruction
system.cpu1.op_class::FloatDiv                      0                       # Class of executed instruction
system.cpu1.op_class::FloatSqrt                     0                       # Class of executed instruction
system.cpu1.op_class::SimdAdd                       0                       # Class of executed instruction
system.cpu1.op_class::SimdAddAcc                    0                       # Class of executed instruction
system.cpu1.op_class::SimdAlu                       0                       # Class of executed instruction
system.cpu1.op_class::SimdCmp                       0                       # Class of executed instruction
system.cpu1.op_class::SimdCvt                       0                       # Class of executed instruction
system.cpu1.op_class::SimdMisc                      0                       # Class of executed instruction
system.cpu1.op_class::SimdMult                      0                       # Class of executed instruction
system.cpu1.op_class::SimdMultAcc                   0                       # Class of executed instruction
system.cpu1.op_class::SimdShift                     0                       # Class of executed instruction
system.cpu1.op_class::SimdShiftAcc                  0                       # Class of executed instruction
system.cpu1.op_class::SimdSqrt                      0                       # Class of executed instruction
system.cpu1.op_class::SimdFloatAdd                  0                       # Class of executed instruction
system.cpu1.op_class::SimdFloatAlu                  0                       # Class of executed instruction
system.cpu1.op_class::SimdFloatCmp                  0                       # Class of executed instruction
system.cpu1.op_class::SimdFloatCvt                  0                       # Class of executed instruction
system.cpu1.op_class::SimdFloatDiv                  0                       # Class of executed instruction
system.cpu1.op_class::SimdFloatMisc                 0                       # Class of executed instruction
system.cpu1.op_class::SimdFloatMult                 0                       # Class of executed instruction
system.cpu1.op_class::SimdFloatMultAcc              0                       # Class of executed instruction
system.cpu1.op_class::SimdFloatSqrt                 0                       # Class of executed instruction
system.cpu1.op_class::MemRead                       0                       # Class of executed instruction
system.cpu1.op_class::MemWrite                      0                       # Class of executed instruction
system.cpu1.op_class::IprAccess                     0                       # Class of executed instruction
system.cpu1.op_class::InstPrefetch                  0                       # Class of executed instruction
system.cpu1.op_class::total                         0                       # Class of executed instruction
system.gpu.clk_domain.voltage_domain.voltage            1                       # Voltage in Volts
system.gpu.clk_domain.clock                      1429                       # Clock period in ticks
system.gpu.dram_wrapper.clk_domain.clock          541                       # Clock period in ticks
system.gpu.icnt_wrapper.clk_domain.clock         2858                       # Clock period in ticks
system.ruby.delayHist::bucket_size                128                       # delay histogram for all message
system.ruby.delayHist::max_bucket                1279                       # delay histogram for all message
system.ruby.delayHist::samples                  10937                       # delay histogram for all message
system.ruby.delayHist::mean                 12.114474                       # delay histogram for all message
system.ruby.delayHist::stdev                69.141867                       # delay histogram for all message
system.ruby.delayHist                    |       10692     97.76%     97.76% |         172      1.57%     99.33% |          12      0.11%     99.44% |           7      0.06%     99.51% |           6      0.05%     99.56% |          12      0.11%     99.67% |          11      0.10%     99.77% |          11      0.10%     99.87% |          12      0.11%     99.98% |           2      0.02%    100.00% # delay histogram for all message
system.ruby.delayHist::total                    10937                       # delay histogram for all message
system.ruby.outstanding_req_hist::bucket_size            8                      
system.ruby.outstanding_req_hist::max_bucket           79                      
system.ruby.outstanding_req_hist::samples      2878213                      
system.ruby.outstanding_req_hist::mean       1.008402                      
system.ruby.outstanding_req_hist::gmean      1.001855                      
system.ruby.outstanding_req_hist::stdev      0.571765                      
system.ruby.outstanding_req_hist         |     2877832     99.99%     99.99% |          37      0.00%     99.99% |          43      0.00%     99.99% |          25      0.00%     99.99% |          25      0.00%     99.99% |          25      0.00%     99.99% |          47      0.00%     99.99% |          28      0.00%     99.99% |         151      0.01%    100.00% |           0      0.00%    100.00%
system.ruby.outstanding_req_hist::total       2878213                      
system.ruby.latency_hist::bucket_size             128                      
system.ruby.latency_hist::max_bucket             1279                      
system.ruby.latency_hist::samples             2878213                      
system.ruby.latency_hist::mean               1.126255                      
system.ruby.latency_hist::gmean              1.004053                      
system.ruby.latency_hist::stdev              7.114526                      
system.ruby.latency_hist                 |     2877410     99.97%     99.97% |         530      0.02%     99.99% |          32      0.00%     99.99% |          33      0.00%     99.99% |          68      0.00%    100.00% |          62      0.00%    100.00% |          48      0.00%    100.00% |          30      0.00%    100.00% |           0      0.00%    100.00% |           0      0.00%    100.00%
system.ruby.latency_hist::total               2878213                      
system.ruby.hit_latency_hist::bucket_size            1                      
system.ruby.hit_latency_hist::max_bucket            9                      
system.ruby.hit_latency_hist::samples         2875423                      
system.ruby.hit_latency_hist::mean                  1                      
system.ruby.hit_latency_hist::gmean                 1                      
system.ruby.hit_latency_hist             |           0      0.00%      0.00% |     2875423    100.00%    100.00% |           0      0.00%    100.00% |           0      0.00%    100.00% |           0      0.00%    100.00% |           0      0.00%    100.00% |           0      0.00%    100.00% |           0      0.00%    100.00% |           0      0.00%    100.00% |           0      0.00%    100.00%
system.ruby.hit_latency_hist::total           2875423                      
system.ruby.miss_latency_hist::bucket_size          128                      
system.ruby.miss_latency_hist::max_bucket         1279                      
system.ruby.miss_latency_hist::samples           2790                      
system.ruby.miss_latency_hist::mean        131.247312                      
system.ruby.miss_latency_hist::gmean        64.914581                      
system.ruby.miss_latency_hist::stdev       187.833856                      
system.ruby.miss_latency_hist            |        1987     71.22%     71.22% |         530     19.00%     90.22% |          32      1.15%     91.36% |          33      1.18%     92.54% |          68      2.44%     94.98% |          62      2.22%     97.20% |          48      1.72%     98.92% |          30      1.08%    100.00% |           0      0.00%    100.00% |           0      0.00%    100.00%
system.ruby.miss_latency_hist::total             2790                      
system.gpu.shader_mmu.numPagefaults                 0                       # Number of Pagefaults
system.gpu.shader_mmu.numPagewalks                 91                       # Number of Pagewalks
system.gpu.shader_mmu.totalRequests                91                       # Total number of requests
system.gpu.shader_mmu.l2hits                        0                       # Hits in the shared L2
system.gpu.shader_mmu.prefetchHits                  0                       # Number of prefetch hits
system.gpu.shader_mmu.numPrefetches                 0                       # Number of prefetchs
system.gpu.shader_mmu.prefetchFaults                0                       # Number of faults caused by prefetches
system.gpu.shader_mmu.pagefaultLatency::samples            0                       # Latency to complete the pagefault
system.gpu.shader_mmu.pagefaultLatency::mean          nan                       # Latency to complete the pagefault
system.gpu.shader_mmu.pagefaultLatency::gmean          nan                       # Latency to complete the pagefault
system.gpu.shader_mmu.pagefaultLatency::stdev          nan                       # Latency to complete the pagefault
system.gpu.shader_mmu.pagefaultLatency::0            0                       # Latency to complete the pagefault
system.gpu.shader_mmu.pagefaultLatency::1            0                       # Latency to complete the pagefault
system.gpu.shader_mmu.pagefaultLatency::2            0                       # Latency to complete the pagefault
system.gpu.shader_mmu.pagefaultLatency::3            0                       # Latency to complete the pagefault
system.gpu.shader_mmu.pagefaultLatency::4            0                       # Latency to complete the pagefault
system.gpu.shader_mmu.pagefaultLatency::5            0                       # Latency to complete the pagefault
system.gpu.shader_mmu.pagefaultLatency::6            0                       # Latency to complete the pagefault
system.gpu.shader_mmu.pagefaultLatency::7            0                       # Latency to complete the pagefault
system.gpu.shader_mmu.pagefaultLatency::8            0                       # Latency to complete the pagefault
system.gpu.shader_mmu.pagefaultLatency::9            0                       # Latency to complete the pagefault
system.gpu.shader_mmu.pagefaultLatency::10            0                       # Latency to complete the pagefault
system.gpu.shader_mmu.pagefaultLatency::11            0                       # Latency to complete the pagefault
system.gpu.shader_mmu.pagefaultLatency::12            0                       # Latency to complete the pagefault
system.gpu.shader_mmu.pagefaultLatency::13            0                       # Latency to complete the pagefault
system.gpu.shader_mmu.pagefaultLatency::14            0                       # Latency to complete the pagefault
system.gpu.shader_mmu.pagefaultLatency::15            0                       # Latency to complete the pagefault
system.gpu.shader_mmu.pagefaultLatency::16            0                       # Latency to complete the pagefault
system.gpu.shader_mmu.pagefaultLatency::17            0                       # Latency to complete the pagefault
system.gpu.shader_mmu.pagefaultLatency::18            0                       # Latency to complete the pagefault
system.gpu.shader_mmu.pagefaultLatency::19            0                       # Latency to complete the pagefault
system.gpu.shader_mmu.pagefaultLatency::20            0                       # Latency to complete the pagefault
system.gpu.shader_mmu.pagefaultLatency::21            0                       # Latency to complete the pagefault
system.gpu.shader_mmu.pagefaultLatency::22            0                       # Latency to complete the pagefault
system.gpu.shader_mmu.pagefaultLatency::23            0                       # Latency to complete the pagefault
system.gpu.shader_mmu.pagefaultLatency::24            0                       # Latency to complete the pagefault
system.gpu.shader_mmu.pagefaultLatency::25            0                       # Latency to complete the pagefault
system.gpu.shader_mmu.pagefaultLatency::26            0                       # Latency to complete the pagefault
system.gpu.shader_mmu.pagefaultLatency::27            0                       # Latency to complete the pagefault
system.gpu.shader_mmu.pagefaultLatency::28            0                       # Latency to complete the pagefault
system.gpu.shader_mmu.pagefaultLatency::29            0                       # Latency to complete the pagefault
system.gpu.shader_mmu.pagefaultLatency::30            0                       # Latency to complete the pagefault
system.gpu.shader_mmu.pagefaultLatency::31            0                       # Latency to complete the pagefault
system.gpu.shader_mmu.pagefaultLatency::total            0                       # Latency to complete the pagefault
system.gpu.shader_mmu.concurrentWalks::samples           91                       # Number of outstanding walks
system.gpu.shader_mmu.concurrentWalks::mean            0                       # Number of outstanding walks
system.gpu.shader_mmu.concurrentWalks::gmean            0                       # Number of outstanding walks
system.gpu.shader_mmu.concurrentWalks::stdev            0                       # Number of outstanding walks
system.gpu.shader_mmu.concurrentWalks::0           91    100.00%    100.00% # Number of outstanding walks
system.gpu.shader_mmu.concurrentWalks::1            0      0.00%    100.00% # Number of outstanding walks
system.gpu.shader_mmu.concurrentWalks::2            0      0.00%    100.00% # Number of outstanding walks
system.gpu.shader_mmu.concurrentWalks::3            0      0.00%    100.00% # Number of outstanding walks
system.gpu.shader_mmu.concurrentWalks::4            0      0.00%    100.00% # Number of outstanding walks
system.gpu.shader_mmu.concurrentWalks::5            0      0.00%    100.00% # Number of outstanding walks
system.gpu.shader_mmu.concurrentWalks::6            0      0.00%    100.00% # Number of outstanding walks
system.gpu.shader_mmu.concurrentWalks::7            0      0.00%    100.00% # Number of outstanding walks
system.gpu.shader_mmu.concurrentWalks::8            0      0.00%    100.00% # Number of outstanding walks
system.gpu.shader_mmu.concurrentWalks::9            0      0.00%    100.00% # Number of outstanding walks
system.gpu.shader_mmu.concurrentWalks::10            0      0.00%    100.00% # Number of outstanding walks
system.gpu.shader_mmu.concurrentWalks::11            0      0.00%    100.00% # Number of outstanding walks
system.gpu.shader_mmu.concurrentWalks::12            0      0.00%    100.00% # Number of outstanding walks
system.gpu.shader_mmu.concurrentWalks::13            0      0.00%    100.00% # Number of outstanding walks
system.gpu.shader_mmu.concurrentWalks::14            0      0.00%    100.00% # Number of outstanding walks
system.gpu.shader_mmu.concurrentWalks::15            0      0.00%    100.00% # Number of outstanding walks
system.gpu.shader_mmu.concurrentWalks::total           91                       # Number of outstanding walks
system.gpu.shader_mmu.pagewalkLatency::samples           91                       # Latency to complete the pagewalk
system.gpu.shader_mmu.pagewalkLatency::mean            0                       # Latency to complete the pagewalk
system.gpu.shader_mmu.pagewalkLatency::gmean            0                       # Latency to complete the pagewalk
system.gpu.shader_mmu.pagewalkLatency::stdev            0                       # Latency to complete the pagewalk
system.gpu.shader_mmu.pagewalkLatency::0           91    100.00%    100.00% # Latency to complete the pagewalk
system.gpu.shader_mmu.pagewalkLatency::1            0      0.00%    100.00% # Latency to complete the pagewalk
system.gpu.shader_mmu.pagewalkLatency::2            0      0.00%    100.00% # Latency to complete the pagewalk
system.gpu.shader_mmu.pagewalkLatency::3            0      0.00%    100.00% # Latency to complete the pagewalk
system.gpu.shader_mmu.pagewalkLatency::4            0      0.00%    100.00% # Latency to complete the pagewalk
system.gpu.shader_mmu.pagewalkLatency::5            0      0.00%    100.00% # Latency to complete the pagewalk
system.gpu.shader_mmu.pagewalkLatency::6            0      0.00%    100.00% # Latency to complete the pagewalk
system.gpu.shader_mmu.pagewalkLatency::7            0      0.00%    100.00% # Latency to complete the pagewalk
system.gpu.shader_mmu.pagewalkLatency::8            0      0.00%    100.00% # Latency to complete the pagewalk
system.gpu.shader_mmu.pagewalkLatency::9            0      0.00%    100.00% # Latency to complete the pagewalk
system.gpu.shader_mmu.pagewalkLatency::10            0      0.00%    100.00% # Latency to complete the pagewalk
system.gpu.shader_mmu.pagewalkLatency::11            0      0.00%    100.00% # Latency to complete the pagewalk
system.gpu.shader_mmu.pagewalkLatency::12            0      0.00%    100.00% # Latency to complete the pagewalk
system.gpu.shader_mmu.pagewalkLatency::13            0      0.00%    100.00% # Latency to complete the pagewalk
system.gpu.shader_mmu.pagewalkLatency::14            0      0.00%    100.00% # Latency to complete the pagewalk
system.gpu.shader_mmu.pagewalkLatency::15            0      0.00%    100.00% # Latency to complete the pagewalk
system.gpu.shader_mmu.pagewalkLatency::16            0      0.00%    100.00% # Latency to complete the pagewalk
system.gpu.shader_mmu.pagewalkLatency::17            0      0.00%    100.00% # Latency to complete the pagewalk
system.gpu.shader_mmu.pagewalkLatency::18            0      0.00%    100.00% # Latency to complete the pagewalk
system.gpu.shader_mmu.pagewalkLatency::19            0      0.00%    100.00% # Latency to complete the pagewalk
system.gpu.shader_mmu.pagewalkLatency::20            0      0.00%    100.00% # Latency to complete the pagewalk
system.gpu.shader_mmu.pagewalkLatency::21            0      0.00%    100.00% # Latency to complete the pagewalk
system.gpu.shader_mmu.pagewalkLatency::22            0      0.00%    100.00% # Latency to complete the pagewalk
system.gpu.shader_mmu.pagewalkLatency::23            0      0.00%    100.00% # Latency to complete the pagewalk
system.gpu.shader_mmu.pagewalkLatency::24            0      0.00%    100.00% # Latency to complete the pagewalk
system.gpu.shader_mmu.pagewalkLatency::25            0      0.00%    100.00% # Latency to complete the pagewalk
system.gpu.shader_mmu.pagewalkLatency::26            0      0.00%    100.00% # Latency to complete the pagewalk
system.gpu.shader_mmu.pagewalkLatency::27            0      0.00%    100.00% # Latency to complete the pagewalk
system.gpu.shader_mmu.pagewalkLatency::28            0      0.00%    100.00% # Latency to complete the pagewalk
system.gpu.shader_mmu.pagewalkLatency::29            0      0.00%    100.00% # Latency to complete the pagewalk
system.gpu.shader_mmu.pagewalkLatency::30            0      0.00%    100.00% # Latency to complete the pagewalk
system.gpu.shader_mmu.pagewalkLatency::31            0      0.00%    100.00% # Latency to complete the pagewalk
system.gpu.shader_mmu.pagewalkLatency::total           91                       # Latency to complete the pagewalk
system.gpu.kernels_started                          9                       # Number of kernels started
system.gpu.kernels_completed                        9                       # Number of kernels completed
system.gpu.ce.device_dtb.hits                       0                       # Number of hits in this TLB
system.gpu.ce.device_dtb.misses                     0                       # Number of misses in this TLB
system.gpu.ce.device_dtb.hitRate                  nan                       # Hit rate for this TLB
system.gpu.ce.host_dtb.hits                       128                       # Number of hits in this TLB
system.gpu.ce.host_dtb.misses                      91                       # Number of misses in this TLB
system.gpu.ce.host_dtb.hitRate               0.584475                       # Hit rate for this TLB
system.gpu.ce.numOperations                        25                       # Number of copy/memset operations
system.gpu.ce.opBytesRead                       25440                       # Number of copy bytes read
system.gpu.ce.opBytesWritten                    25440                       # Number of copy/memset bytes written
system.gpu.ce.opTimeTicks                   127938804                       # Total time spent in copy/memset operations
system.gpu.shader_cores0.itb.hits                   0                       # Number of hits in this TLB
system.gpu.shader_cores0.itb.misses                 0                       # Number of misses in this TLB
system.gpu.shader_cores0.itb.hitRate              nan                       # Hit rate for this TLB
system.gpu.shader_cores0.local_loads                0                       # Number of loads from local space
system.gpu.shader_cores0.local_stores               0                       # Number of stores to local space
system.gpu.shader_cores0.shared_loads               0                       # Number of loads from shared space
system.gpu.shader_cores0.shared_stores              0                       # Number of stores to shared space
system.gpu.shader_cores0.param_kernel_loads         3112                       # Number of loads from kernel parameter space
system.gpu.shader_cores0.param_local_loads            0                       # Number of loads from local parameter space
system.gpu.shader_cores0.param_local_stores            0                       # Number of stores to local parameter space
system.gpu.shader_cores0.const_loads                0                       # Number of loads from constant space
system.gpu.shader_cores0.tex_loads                  0                       # Number of loads from texture space
system.gpu.shader_cores0.global_loads           68000                       # Number of loads from global space
system.gpu.shader_cores0.global_stores            200                       # Number of stores to global space
system.gpu.shader_cores0.surf_loads                 0                       # Number of loads from surface space
system.gpu.shader_cores0.generic_loads              0                       # Number of loads from generic spaces (global, shared, local)
system.gpu.shader_cores0.generic_stores             0                       # Number of stores to generic spaces (global, shared, local)
system.gpu.shader_cores0.inst_cache_requests            6                       # Number of instruction cache requests sent
system.gpu.shader_cores0.inst_cache_retries            0                       # Number of instruction cache retries
system.gpu.shader_cores0.inst_counts::0             0                       # Inst counts: 1: ALU, 2: MAD, 3: CTRL, 4: SFU, 5: MEM, 6: TEX, 7: NOP
system.gpu.shader_cores0.inst_counts::1        196844                       # Inst counts: 1: ALU, 2: MAD, 3: CTRL, 4: SFU, 5: MEM, 6: TEX, 7: NOP
system.gpu.shader_cores0.inst_counts::2         34000                       # Inst counts: 1: ALU, 2: MAD, 3: CTRL, 4: SFU, 5: MEM, 6: TEX, 7: NOP
system.gpu.shader_cores0.inst_counts::3         36642                       # Inst counts: 1: ALU, 2: MAD, 3: CTRL, 4: SFU, 5: MEM, 6: TEX, 7: NOP
system.gpu.shader_cores0.inst_counts::4             0                       # Inst counts: 1: ALU, 2: MAD, 3: CTRL, 4: SFU, 5: MEM, 6: TEX, 7: NOP
system.gpu.shader_cores0.inst_counts::5         71312                       # Inst counts: 1: ALU, 2: MAD, 3: CTRL, 4: SFU, 5: MEM, 6: TEX, 7: NOP
system.gpu.shader_cores0.inst_counts::6             0                       # Inst counts: 1: ALU, 2: MAD, 3: CTRL, 4: SFU, 5: MEM, 6: TEX, 7: NOP
system.gpu.shader_cores0.inst_counts::7             0                       # Inst counts: 1: ALU, 2: MAD, 3: CTRL, 4: SFU, 5: MEM, 6: TEX, 7: NOP
system.gpu.shader_cores0.activeCycles           21191                       # Number of cycles this shader was executing a CTA
system.gpu.shader_cores0.notStalledCycles        11370                       # Number of cycles this shader was actually executing at least one instance
system.gpu.shader_cores0.instInstances         338798                       # Total instructions executed by all PEs in the core
system.gpu.shader_cores0.instPerCycle       15.987825                       # Instruction instances per cycle
system.gpu.shader_cores0.kernels_completed            2                       # Number of kernels completed
system.gpu.shader_cores0.lsq.data_tlb.hits            0                       # Number of hits in this TLB
system.gpu.shader_cores0.lsq.data_tlb.misses            0                       # Number of misses in this TLB
system.gpu.shader_cores0.lsq.data_tlb.hitRate          nan                       # Hit rate for this TLB
system.gpu.shader_cores0.lsq.warpInstBufActive::samples     29528856                       # Histogram of number of active warp inst buffers at a given time
system.gpu.shader_cores0.lsq.warpInstBufActive::mean     1.825590                       # Histogram of number of active warp inst buffers at a given time
system.gpu.shader_cores0.lsq.warpInstBufActive::gmean          nan                       # Histogram of number of active warp inst buffers at a given time
system.gpu.shader_cores0.lsq.warpInstBufActive::stdev     2.600752                       # Histogram of number of active warp inst buffers at a given time
system.gpu.shader_cores0.lsq.warpInstBufActive::0     17356634     58.78%     58.78% # Histogram of number of active warp inst buffers at a given time
system.gpu.shader_cores0.lsq.warpInstBufActive::1      1517598      5.14%     63.92% # Histogram of number of active warp inst buffers at a given time
system.gpu.shader_cores0.lsq.warpInstBufActive::2      1629060      5.52%     69.43% # Histogram of number of active warp inst buffers at a given time
system.gpu.shader_cores0.lsq.warpInstBufActive::3       997442      3.38%     72.81% # Histogram of number of active warp inst buffers at a given time
system.gpu.shader_cores0.lsq.warpInstBufActive::4      2179225      7.38%     80.19% # Histogram of number of active warp inst buffers at a given time
system.gpu.shader_cores0.lsq.warpInstBufActive::5      1524743      5.16%     85.36% # Histogram of number of active warp inst buffers at a given time
system.gpu.shader_cores0.lsq.warpInstBufActive::6      1657640      5.61%     90.97% # Histogram of number of active warp inst buffers at a given time
system.gpu.shader_cores0.lsq.warpInstBufActive::7      1479015      5.01%     95.98% # Histogram of number of active warp inst buffers at a given time
system.gpu.shader_cores0.lsq.warpInstBufActive::8      1187499      4.02%    100.00% # Histogram of number of active warp inst buffers at a given time
system.gpu.shader_cores0.lsq.warpInstBufActive::9            0      0.00%    100.00% # Histogram of number of active warp inst buffers at a given time
system.gpu.shader_cores0.lsq.warpInstBufActive::10            0      0.00%    100.00% # Histogram of number of active warp inst buffers at a given time
system.gpu.shader_cores0.lsq.warpInstBufActive::11            0      0.00%    100.00% # Histogram of number of active warp inst buffers at a given time
system.gpu.shader_cores0.lsq.warpInstBufActive::12            0      0.00%    100.00% # Histogram of number of active warp inst buffers at a given time
system.gpu.shader_cores0.lsq.warpInstBufActive::13            0      0.00%    100.00% # Histogram of number of active warp inst buffers at a given time
system.gpu.shader_cores0.lsq.warpInstBufActive::14            0      0.00%    100.00% # Histogram of number of active warp inst buffers at a given time
system.gpu.shader_cores0.lsq.warpInstBufActive::15            0      0.00%    100.00% # Histogram of number of active warp inst buffers at a given time
system.gpu.shader_cores0.lsq.warpInstBufActive::16            0      0.00%    100.00% # Histogram of number of active warp inst buffers at a given time
system.gpu.shader_cores0.lsq.warpInstBufActive::17            0      0.00%    100.00% # Histogram of number of active warp inst buffers at a given time
system.gpu.shader_cores0.lsq.warpInstBufActive::18            0      0.00%    100.00% # Histogram of number of active warp inst buffers at a given time
system.gpu.shader_cores0.lsq.warpInstBufActive::19            0      0.00%    100.00% # Histogram of number of active warp inst buffers at a given time
system.gpu.shader_cores0.lsq.warpInstBufActive::20            0      0.00%    100.00% # Histogram of number of active warp inst buffers at a given time
system.gpu.shader_cores0.lsq.warpInstBufActive::21            0      0.00%    100.00% # Histogram of number of active warp inst buffers at a given time
system.gpu.shader_cores0.lsq.warpInstBufActive::22            0      0.00%    100.00% # Histogram of number of active warp inst buffers at a given time
system.gpu.shader_cores0.lsq.warpInstBufActive::23            0      0.00%    100.00% # Histogram of number of active warp inst buffers at a given time
system.gpu.shader_cores0.lsq.warpInstBufActive::24            0      0.00%    100.00% # Histogram of number of active warp inst buffers at a given time
system.gpu.shader_cores0.lsq.warpInstBufActive::25            0      0.00%    100.00% # Histogram of number of active warp inst buffers at a given time
system.gpu.shader_cores0.lsq.warpInstBufActive::26            0      0.00%    100.00% # Histogram of number of active warp inst buffers at a given time
[...]
system.ruby.L1Cache_Controller.Fwd_GETX  |          84     98.82%     98.82% |           0      0.00%     98.82% |           0      0.00%     98.82% |           1      1.18%    100.00% |           0      0.00%    100.00% |           0      0.00%    100.00% |           0      0.00%    100.00% |           0      0.00%    100.00%
system.ruby.L1Cache_Controller.Fwd_GETX::total           85                      
system.ruby.L1Cache_Controller.Fwd_GETS  |         165     42.09%     42.09% |           0      0.00%     42.09% |           8      2.04%     44.13% |         115     29.34%     73.47% |           8      2.04%     75.51% |           8      2.04%     77.55% |           0      0.00%     77.55% |          88     22.45%    100.00%
system.ruby.L1Cache_Controller.Fwd_GETS::total          392                      
system.ruby.L1Cache_Controller.Data      |          52     44.07%     44.07% |           0      0.00%     44.07% |           0      0.00%     44.07% |           0      0.00%     44.07% |           0      0.00%     44.07% |           0      0.00%     44.07% |           0      0.00%     44.07% |          66     55.93%    100.00%
system.ruby.L1Cache_Controller.Data::total          118                      
system.ruby.L1Cache_Controller.Data_Exclusive |         352     77.70%     77.70% |           0      0.00%     77.70% |           0      0.00%     77.70% |          99     21.85%     99.56% |           0      0.00%     99.56% |           0      0.00%     99.56% |           0      0.00%     99.56% |           2      0.44%    100.00%
system.ruby.L1Cache_Controller.Data_Exclusive::total          453                      
system.ruby.L1Cache_Controller.DataS_fromL1 |          34      8.67%      8.67% |           0      0.00%      8.67% |          12      3.06%     11.73% |          22      5.61%     17.35% |         118     30.10%     47.45% |          12      3.06%     50.51% |           0      0.00%     50.51% |         194     49.49%    100.00%
system.ruby.L1Cache_Controller.DataS_fromL1::total          392                      
system.ruby.L1Cache_Controller.Data_all_Acks |        1280     71.71%     71.71% |           0      0.00%     71.71% |         121      6.78%     78.49% |         123      6.89%     85.38% |          15      0.84%     86.22% |         121      6.78%     93.00% |           0      0.00%     93.00% |         125      7.00%    100.00%
system.ruby.L1Cache_Controller.Data_all_Acks::total         1785                      
system.ruby.L1Cache_Controller.Ack       |          24     40.00%     40.00% |           0      0.00%     40.00% |           0      0.00%     40.00% |           0      0.00%     40.00% |           0      0.00%     40.00% |           0      0.00%     40.00% |           0      0.00%     40.00% |          36     60.00%    100.00%
system.ruby.L1Cache_Controller.Ack::total           60                      
system.ruby.L1Cache_Controller.Ack_all   |          66     41.25%     41.25% |           0      0.00%     41.25% |           0      0.00%     41.25% |           0      0.00%     41.25% |           0      0.00%     41.25% |           0      0.00%     41.25% |           0      0.00%     41.25% |          94     58.75%    100.00%
system.ruby.L1Cache_Controller.Ack_all::total          160                      
system.ruby.L1Cache_Controller.WB_Ack    |         507     79.22%     79.22% |           0      0.00%     79.22% |           0      0.00%     79.22% |           0      0.00%     79.22% |           0      0.00%     79.22% |           0      0.00%     79.22% |           0      0.00%     79.22% |         133     20.78%    100.00%
system.ruby.L1Cache_Controller.WB_Ack::total          640                      
system.ruby.L1Cache_Controller.NP.Load   |         473     42.38%     42.38% |           0      0.00%     42.38% |         113     10.13%     52.51% |         113     10.13%     62.63% |         113     10.13%     72.76% |         113     10.13%     82.89% |           0      0.00%     82.89% |         191     17.11%    100.00%
system.ruby.L1Cache_Controller.NP.Load::total         1116                      
system.ruby.L1Cache_Controller.NP.Ifetch |         721     96.52%     96.52% |           0      0.00%     96.52% |           6      0.80%     97.32% |           8      1.07%     98.39% |           6      0.80%     99.20% |           6      0.80%    100.00% |           0      0.00%    100.00% |           0      0.00%    100.00%
system.ruby.L1Cache_Controller.NP.Ifetch::total          747                      
system.ruby.L1Cache_Controller.NP.Store  |         500     61.43%     61.43% |           0      0.00%     61.43% |           4      0.49%     61.92% |         111     13.64%     75.55% |           4      0.49%     76.04% |           4      0.49%     76.54% |           0      0.00%     76.54% |         191     23.46%    100.00%
system.ruby.L1Cache_Controller.NP.Store::total          814                      
system.ruby.L1Cache_Controller.NP.Inv    |          14     21.54%     21.54% |           0      0.00%     21.54% |           0      0.00%     21.54% |           0      0.00%     21.54% |           0      0.00%     21.54% |           0      0.00%     21.54% |           0      0.00%     21.54% |          51     78.46%    100.00%
system.ruby.L1Cache_Controller.NP.Inv::total           65                      
system.ruby.L1Cache_Controller.I.Load    |          21     40.38%     40.38% |           0      0.00%     40.38% |           6     11.54%     51.92% |           8     15.38%     67.31% |           6     11.54%     78.85% |           6     11.54%     90.38% |           0      0.00%     90.38% |           5      9.62%    100.00%
system.ruby.L1Cache_Controller.I.Load::total           52                      
system.ruby.L1Cache_Controller.I.Store   |           3     15.79%     15.79% |           0      0.00%     15.79% |           4     21.05%     36.84% |           4     21.05%     57.89% |           4     21.05%     78.95% |           4     21.05%    100.00% |           0      0.00%    100.00% |           0      0.00%    100.00%
system.ruby.L1Cache_Controller.I.Store::total           19                      
system.ruby.L1Cache_Controller.I.L1_Replacement |          24     96.00%     96.00% |           0      0.00%     96.00% |           0      0.00%     96.00% |           0      0.00%     96.00% |           0      0.00%     96.00% |           0      0.00%     96.00% |           0      0.00%     96.00% |           1      4.00%    100.00%
system.ruby.L1Cache_Controller.I.L1_Replacement::total           25                      
system.ruby.L1Cache_Controller.S.Load    |       26723     65.24%     65.24% |           0      0.00%     65.24% |        3471      8.47%     73.72% |        3800      9.28%     83.00% |        3471      8.47%     91.47% |        3471      8.47%     99.94% |           0      0.00%     99.94% |          23      0.06%    100.00%
system.ruby.L1Cache_Controller.S.Load::total        40959                      
system.ruby.L1Cache_Controller.S.Ifetch  |     2170555    100.00%    100.00% |           0      0.00%    100.00% |           0      0.00%    100.00% |           0      0.00%    100.00% |           0      0.00%    100.00% |           0      0.00%    100.00% |           0      0.00%    100.00% |           0      0.00%    100.00%
system.ruby.L1Cache_Controller.S.Ifetch::total      2170555                      
system.ruby.L1Cache_Controller.S.Store   |          14     33.33%     33.33% |           0      0.00%     33.33% |           0      0.00%     33.33% |           0      0.00%     33.33% |           0      0.00%     33.33% |           0      0.00%     33.33% |           0      0.00%     33.33% |          28     66.67%    100.00%
system.ruby.L1Cache_Controller.S.Store::total           42                      
system.ruby.L1Cache_Controller.S.Inv     |          18     15.93%     15.93% |           0      0.00%     15.93% |          22     19.47%     35.40% |          19     16.81%     52.21% |          22     19.47%     71.68% |          22     19.47%     91.15% |           0      0.00%     91.15% |          10      8.85%    100.00%
system.ruby.L1Cache_Controller.S.Inv::total          113                      
system.ruby.L1Cache_Controller.S.L1_Replacement |         655     73.18%     73.18% |           0      0.00%     73.18% |           0      0.00%     73.18% |           0      0.00%     73.18% |           0      0.00%     73.18% |           0      0.00%     73.18% |           0      0.00%     73.18% |         240     26.82%    100.00%
system.ruby.L1Cache_Controller.S.L1_Replacement::total          895                      
system.ruby.L1Cache_Controller.E.Load    |       77580     96.19%     96.19% |           0      0.00%     96.19% |           0      0.00%     96.19% |        3069      3.81%    100.00% |           0      0.00%    100.00% |           0      0.00%    100.00% |           0      0.00%    100.00% |           0      0.00%    100.00%
system.ruby.L1Cache_Controller.E.Load::total        80649                      
system.ruby.L1Cache_Controller.E.Store   |          81    100.00%    100.00% |           0      0.00%    100.00% |           0      0.00%    100.00% |           0      0.00%    100.00% |           0      0.00%    100.00% |           0      0.00%    100.00% |           0      0.00%    100.00% |           0      0.00%    100.00%
system.ruby.L1Cache_Controller.E.Store::total           81                      
system.ruby.L1Cache_Controller.E.L1_Replacement |         203     99.02%     99.02% |           0      0.00%     99.02% |           0      0.00%     99.02% |           0      0.00%     99.02% |           0      0.00%     99.02% |           0      0.00%     99.02% |           0      0.00%     99.02% |           2      0.98%    100.00%
system.ruby.L1Cache_Controller.E.L1_Replacement::total          205                      
system.ruby.L1Cache_Controller.E.Fwd_GETX |          39     97.50%     97.50% |           0      0.00%     97.50% |           0      0.00%     97.50% |           1      2.50%    100.00% |           0      0.00%    100.00% |           0      0.00%    100.00% |           0      0.00%    100.00% |           0      0.00%    100.00%
system.ruby.L1Cache_Controller.E.Fwd_GETX::total           40                      
system.ruby.L1Cache_Controller.M.Load    |      255572    100.00%    100.00% |           0      0.00%    100.00% |           0      0.00%    100.00% |           0      0.00%    100.00% |           0      0.00%    100.00% |           0      0.00%    100.00% |           0      0.00%    100.00% |           0      0.00%    100.00%
system.ruby.L1Cache_Controller.M.Load::total       255572                      
system.ruby.L1Cache_Controller.M.Store   |      327491     99.96%     99.96% |           0      0.00%     99.96% |           0      0.00%     99.96% |         116      0.04%    100.00% |           0      0.00%    100.00% |           0      0.00%    100.00% |           0      0.00%    100.00% |           0      0.00%    100.00%
system.ruby.L1Cache_Controller.M.Store::total       327607                      
system.ruby.L1Cache_Controller.M.L1_Replacement |         304     69.89%     69.89% |           0      0.00%     69.89% |           0      0.00%     69.89% |           0      0.00%     69.89% |           0      0.00%     69.89% |           0      0.00%     69.89% |           0      0.00%     69.89% |         131     30.11%    100.00%
system.ruby.L1Cache_Controller.M.L1_Replacement::total          435                      
system.ruby.L1Cache_Controller.M.Fwd_GETX |          45    100.00%    100.00% |           0      0.00%    100.00% |           0      0.00%    100.00% |           0      0.00%    100.00% |           0      0.00%    100.00% |           0      0.00%    100.00% |           0      0.00%    100.00% |           0      0.00%    100.00%
system.ruby.L1Cache_Controller.M.Fwd_GETX::total           45                      
system.ruby.L1Cache_Controller.M.Fwd_GETS |         165     42.09%     42.09% |           0      0.00%     42.09% |           8      2.04%     44.13% |         115     29.34%     73.47% |           8      2.04%     75.51% |           8      2.04%     77.55% |           0      0.00%     77.55% |          88     22.45%    100.00%
system.ruby.L1Cache_Controller.M.Fwd_GETS::total          392                      
system.ruby.L1Cache_Controller.IS.L1_Replacement |           0      0.00%      0.00% |           0      0.00%      0.00% |           0      0.00%      0.00% |           0      0.00%      0.00% |           0      0.00%      0.00% |           0      0.00%      0.00% |           0      0.00%      0.00% |        1559    100.00%    100.00%
system.ruby.L1Cache_Controller.IS.L1_Replacement::total         1559                      
system.ruby.L1Cache_Controller.IS.Data_Exclusive |         352     77.70%     77.70% |           0      0.00%     77.70% |           0      0.00%     77.70% |          99     21.85%     99.56% |           0      0.00%     99.56% |           0      0.00%     99.56% |           0      0.00%     99.56% |           2      0.44%    100.00%
system.ruby.L1Cache_Controller.IS.Data_Exclusive::total          453                      
system.ruby.L1Cache_Controller.IS.DataS_fromL1 |          34      8.67%      8.67% |           0      0.00%      8.67% |          12      3.06%     11.73% |          22      5.61%     17.35% |         118     30.10%     47.45% |          12      3.06%     50.51% |           0      0.00%     50.51% |         194     49.49%    100.00%
system.ruby.L1Cache_Controller.IS.DataS_fromL1::total          392                      
system.ruby.L1Cache_Controller.IS.Data_all_Acks |         829     77.48%     77.48% |           0      0.00%     77.48% |         113     10.56%     88.04% |           8      0.75%     88.79% |           7      0.65%     89.44% |         113     10.56%    100.00% |           0      0.00%    100.00% |           0      0.00%    100.00%
system.ruby.L1Cache_Controller.IS.Data_all_Acks::total         1070                      
system.ruby.L1Cache_Controller.IM.L1_Replacement |           0      0.00%      0.00% |           0      0.00%      0.00% |           0      0.00%      0.00% |           0      0.00%      0.00% |           0      0.00%      0.00% |           0      0.00%      0.00% |           0      0.00%      0.00% |         972    100.00%    100.00%
system.ruby.L1Cache_Controller.IM.L1_Replacement::total          972                      
system.ruby.L1Cache_Controller.IM.Data   |          52     44.07%     44.07% |           0      0.00%     44.07% |           0      0.00%     44.07% |           0      0.00%     44.07% |           0      0.00%     44.07% |           0      0.00%     44.07% |           0      0.00%     44.07% |          66     55.93%    100.00%
system.ruby.L1Cache_Controller.IM.Data::total          118                      
system.ruby.L1Cache_Controller.IM.Data_all_Acks |         451     63.08%     63.08% |           0      0.00%     63.08% |           8      1.12%     64.20% |         115     16.08%     80.28% |           8      1.12%     81.40% |           8      1.12%     82.52% |           0      0.00%     82.52% |         125     17.48%    100.00%
system.ruby.L1Cache_Controller.IM.Data_all_Acks::total          715                      
system.ruby.L1Cache_Controller.IM.Ack    |           0      0.00%      0.00% |           0      0.00%      0.00% |           0      0.00%      0.00% |           0      0.00%      0.00% |           0      0.00%      0.00% |           0      0.00%      0.00% |           0      0.00%      0.00% |           8    100.00%    100.00%
system.ruby.L1Cache_Controller.IM.Ack::total            8                      
system.ruby.L1Cache_Controller.SM.Ack    |          24     46.15%     46.15% |           0      0.00%     46.15% |           0      0.00%     46.15% |           0      0.00%     46.15% |           0      0.00%     46.15% |           0      0.00%     46.15% |           0      0.00%     46.15% |          28     53.85%    100.00%
system.ruby.L1Cache_Controller.SM.Ack::total           52                      
system.ruby.L1Cache_Controller.SM.Ack_all |          66     41.25%     41.25% |           0      0.00%     41.25% |           0      0.00%     41.25% |           0      0.00%     41.25% |           0      0.00%     41.25% |           0      0.00%     41.25% |           0      0.00%     41.25% |          94     58.75%    100.00%
system.ruby.L1Cache_Controller.SM.Ack_all::total          160                      
system.ruby.L1Cache_Controller.M_I.Ifetch |           1    100.00%    100.00% |           0      0.00%    100.00% |           0      0.00%    100.00% |           0      0.00%    100.00% |           0      0.00%    100.00% |           0      0.00%    100.00% |           0      0.00%    100.00% |           0      0.00%    100.00%
system.ruby.L1Cache_Controller.M_I.Ifetch::total            1                      
system.ruby.L1Cache_Controller.M_I.WB_Ack |         507     79.22%     79.22% |           0      0.00%     79.22% |           0      0.00%     79.22% |           0      0.00%     79.22% |           0      0.00%     79.22% |           0      0.00%     79.22% |           0      0.00%     79.22% |         133     20.78%    100.00%
system.ruby.L1Cache_Controller.M_I.WB_Ack::total          640                      
system.ruby.L2Cache_Controller.L1_GET_INSTR          747      0.00%      0.00%
system.ruby.L2Cache_Controller.L1_GETS           1168      0.00%      0.00%
system.ruby.L2Cache_Controller.L1_GETX            833      0.00%      0.00%
system.ruby.L2Cache_Controller.L1_UPGRADE           42      0.00%      0.00%
system.ruby.L2Cache_Controller.L1_PUTX            640      0.00%      0.00%
system.ruby.L2Cache_Controller.Mem_Data          1132      0.00%      0.00%
system.ruby.L2Cache_Controller.WB_Data            392      0.00%      0.00%
system.ruby.L2Cache_Controller.Unblock            392      0.00%      0.00%
system.ruby.L2Cache_Controller.Exclusive_Unblock         1328      0.00%      0.00%
system.ruby.L2Cache_Controller.NP.L1_GET_INSTR          557      0.00%      0.00%
system.ruby.L2Cache_Controller.NP.L1_GETS          162      0.00%      0.00%
system.ruby.L2Cache_Controller.NP.L1_GETX          413      0.00%      0.00%
system.ruby.L2Cache_Controller.SS.L1_GET_INSTR          186      0.00%      0.00%
system.ruby.L2Cache_Controller.SS.L1_GETS          323      0.00%      0.00%
system.ruby.L2Cache_Controller.SS.L1_GETX          126      0.00%      0.00%
system.ruby.L2Cache_Controller.SS.L1_UPGRADE           42      0.00%      0.00%
system.ruby.L2Cache_Controller.M.L1_GET_INSTR            4      0.00%      0.00%
system.ruby.L2Cache_Controller.M.L1_GETS          291      0.00%      0.00%
system.ruby.L2Cache_Controller.M.L1_GETX          209      0.00%      0.00%
system.ruby.L2Cache_Controller.MT.L1_GETS          392      0.00%      0.00%
system.ruby.L2Cache_Controller.MT.L1_GETX           85      0.00%      0.00%
system.ruby.L2Cache_Controller.MT.L1_PUTX          640      0.00%      0.00%
system.ruby.L2Cache_Controller.ISS.Mem_Data          162      0.00%      0.00%
system.ruby.L2Cache_Controller.IS.Mem_Data          557      0.00%      0.00%
system.ruby.L2Cache_Controller.IM.Mem_Data          413      0.00%      0.00%
system.ruby.L2Cache_Controller.SS_MB.Exclusive_Unblock          168      0.00%      0.00%
system.ruby.L2Cache_Controller.MT_MB.Exclusive_Unblock         1160      0.00%      0.00%
system.ruby.L2Cache_Controller.MT_IIB.WB_Data           30      0.00%      0.00%
system.ruby.L2Cache_Controller.MT_IIB.Unblock          362      0.00%      0.00%
system.ruby.L2Cache_Controller.MT_IB.WB_Data          362      0.00%      0.00%
system.ruby.L2Cache_Controller.MT_SB.Unblock           30      0.00%      0.00%

---------- End Simulation Statistics   ----------
