
---------- Begin Simulation Statistics ----------
sim_seconds                                  0.392381                       # Number of seconds simulated
sim_ticks                                392380842500                       # Number of ticks simulated
final_tick                               392595427000                       # Number of ticks from beginning of simulation (restored from checkpoints and never reset)
sim_freq                                 1000000000000                       # Frequency of simulated ticks
host_inst_rate                                 104706                       # Simulator instruction rate (inst/s)
host_op_rate                                   203633                       # Simulator op (including micro ops) rate (op/s)
host_tick_rate                              205319511                       # Simulator tick rate (ticks/s)
host_mem_usage                                1562372                       # Number of bytes of host memory used
host_seconds                                  1911.07                       # Real time elapsed on the host
sim_insts                                   200100001                       # Number of instructions simulated
sim_ops                                     389157160                       # Number of ops (including micro ops) simulated
system.voltage_domain.voltage                       1                       # Voltage in Volts
system.clk_domain.clock                          1000                       # Clock period in ticks
system.mem_ctrls.bytes_read::ruby.dir_cntrl0     99405184                       # Number of bytes read from this memory
system.mem_ctrls.bytes_read::total           99405184                       # Number of bytes read from this memory
system.mem_ctrls.bytes_written::ruby.dir_cntrl0     59121152                       # Number of bytes written to this memory
system.mem_ctrls.bytes_written::total        59121152                       # Number of bytes written to this memory
system.mem_ctrls.num_reads::ruby.dir_cntrl0       776603                       # Number of read requests responded to by this memory
system.mem_ctrls.num_reads::total              776603                       # Number of read requests responded to by this memory
system.mem_ctrls.num_writes::ruby.dir_cntrl0       461884                       # Number of write requests responded to by this memory
system.mem_ctrls.num_writes::total             461884                       # Number of write requests responded to by this memory
system.mem_ctrls.bw_read::ruby.dir_cntrl0    253338525                       # Total read bandwidth from this memory (bytes/s)
system.mem_ctrls.bw_read::total             253338525                       # Total read bandwidth from this memory (bytes/s)
system.mem_ctrls.bw_write::ruby.dir_cntrl0    150672881                       # Write bandwidth from this memory (bytes/s)
system.mem_ctrls.bw_write::total            150672881                       # Write bandwidth from this memory (bytes/s)
system.mem_ctrls.bw_total::ruby.dir_cntrl0    404011406                       # Total bandwidth to/from this memory (bytes/s)
system.mem_ctrls.bw_total::total            404011406                       # Total bandwidth to/from this memory (bytes/s)
system.mem_ctrls.readReqs                      776603                       # Number of read requests accepted
system.mem_ctrls.writeReqs                     461884                       # Number of write requests accepted
system.mem_ctrls.readBursts                   1553206                       # Number of DRAM read bursts, including those serviced by the write queue
system.mem_ctrls.writeBursts                   923768                       # Number of DRAM write bursts, including those merged in the write queue
system.mem_ctrls.bytesReadDRAM               99311488                       # Total number of bytes read from DRAM
system.mem_ctrls.bytesReadWrQ                   93696                       # Total number of bytes read from write queue
system.mem_ctrls.bytesWritten                59098176                       # Total number of bytes written to DRAM
system.mem_ctrls.bytesReadSys                99405184                       # Total read bytes from the system interface side
system.mem_ctrls.bytesWrittenSys             59121152                       # Total written bytes from the system interface side
system.mem_ctrls.servicedByWrQ                   1464                       # Number of DRAM read bursts serviced by the write queue
system.mem_ctrls.mergedWrBursts                   328                       # Number of DRAM write bursts merged with an existing one
system.mem_ctrls.neitherReadNorWriteReqs            0                       # Number of requests that are neither read nor write
system.mem_ctrls.perBankRdBursts::0             96610                       # Per bank write bursts
system.mem_ctrls.perBankRdBursts::1             96686                       # Per bank write bursts
system.mem_ctrls.perBankRdBursts::2             97355                       # Per bank write bursts
system.mem_ctrls.perBankRdBursts::3             96600                       # Per bank write bursts
system.mem_ctrls.perBankRdBursts::4             96408                       # Per bank write bursts
system.mem_ctrls.perBankRdBursts::5             96046                       # Per bank write bursts
system.mem_ctrls.perBankRdBursts::6             98206                       # Per bank write bursts
system.mem_ctrls.perBankRdBursts::7             97143                       # Per bank write bursts
system.mem_ctrls.perBankRdBursts::8             97828                       # Per bank write bursts
system.mem_ctrls.perBankRdBursts::9             97602                       # Per bank write bursts
system.mem_ctrls.perBankRdBursts::10            97734                       # Per bank write bursts
system.mem_ctrls.perBankRdBursts::11            96670                       # Per bank write bursts
system.mem_ctrls.perBankRdBursts::12            97716                       # Per bank write bursts
system.mem_ctrls.perBankRdBursts::13            95710                       # Per bank write bursts
system.mem_ctrls.perBankRdBursts::14            97104                       # Per bank write bursts
system.mem_ctrls.perBankRdBursts::15            96324                       # Per bank write bursts
system.mem_ctrls.perBankWrBursts::0             57600                       # Per bank write bursts
system.mem_ctrls.perBankWrBursts::1             57593                       # Per bank write bursts
system.mem_ctrls.perBankWrBursts::2             57606                       # Per bank write bursts
system.mem_ctrls.perBankWrBursts::3             57608                       # Per bank write bursts
system.mem_ctrls.perBankWrBursts::4             57610                       # Per bank write bursts
system.mem_ctrls.perBankWrBursts::5             57608                       # Per bank write bursts
system.mem_ctrls.perBankWrBursts::6             57678                       # Per bank write bursts
system.mem_ctrls.perBankWrBursts::7             58474                       # Per bank write bursts
system.mem_ctrls.perBankWrBursts::8             57638                       # Per bank write bursts
system.mem_ctrls.perBankWrBursts::9             57620                       # Per bank write bursts
system.mem_ctrls.perBankWrBursts::10            57396                       # Per bank write bursts
system.mem_ctrls.perBankWrBursts::11            57866                       # Per bank write bursts
system.mem_ctrls.perBankWrBursts::12            58438                       # Per bank write bursts
system.mem_ctrls.perBankWrBursts::13            57600                       # Per bank write bursts
system.mem_ctrls.perBankWrBursts::14            57474                       # Per bank write bursts
system.mem_ctrls.perBankWrBursts::15            57600                       # Per bank write bursts
system.mem_ctrls.numRdRetry                    138093                       # Number of times read queue was full causing retry
system.mem_ctrls.numWrRetry                     14727                       # Number of times write queue was full causing retry
system.mem_ctrls.totGap                  392376228500                       # Total gap between requests
system.mem_ctrls.readPktSize::0                     0                       # Read request sizes (log2)
system.mem_ctrls.readPktSize::1                     0                       # Read request sizes (log2)
system.mem_ctrls.readPktSize::2                     0                       # Read request sizes (log2)
system.mem_ctrls.readPktSize::3                     0                       # Read request sizes (log2)
system.mem_ctrls.readPktSize::4                     0                       # Read request sizes (log2)
system.mem_ctrls.readPktSize::5                     0                       # Read request sizes (log2)
system.mem_ctrls.readPktSize::6               1553206                       # Read request sizes (log2)
system.mem_ctrls.writePktSize::0                    0                       # Write request sizes (log2)
system.mem_ctrls.writePktSize::1                    0                       # Write request sizes (log2)
system.mem_ctrls.writePktSize::2                    0                       # Write request sizes (log2)
system.mem_ctrls.writePktSize::3                    0                       # Write request sizes (log2)
system.mem_ctrls.writePktSize::4                    0                       # Write request sizes (log2)
system.mem_ctrls.writePktSize::5                    0                       # Write request sizes (log2)
system.mem_ctrls.writePktSize::6               923768                       # Write request sizes (log2)
system.mem_ctrls.rdQLenPdf::0                  392446                       # What read queue length does an incoming req see
system.mem_ctrls.rdQLenPdf::1                  395632                       # What read queue length does an incoming req see
system.mem_ctrls.rdQLenPdf::2                   30060                       # What read queue length does an incoming req see
system.mem_ctrls.rdQLenPdf::3                   35153                       # What read queue length does an incoming req see
system.mem_ctrls.rdQLenPdf::4                   53652                       # What read queue length does an incoming req see
system.mem_ctrls.rdQLenPdf::5                   67609                       # What read queue length does an incoming req see
system.mem_ctrls.rdQLenPdf::6                   72489                       # What read queue length does an incoming req see
system.mem_ctrls.rdQLenPdf::7                   66911                       # What read queue length does an incoming req see
system.mem_ctrls.rdQLenPdf::8                   58542                       # What read queue length does an incoming req see
system.mem_ctrls.rdQLenPdf::9                   53653                       # What read queue length does an incoming req see
system.mem_ctrls.rdQLenPdf::10                  47379                       # What read queue length does an incoming req see
system.mem_ctrls.rdQLenPdf::11                  44695                       # What read queue length does an incoming req see
system.mem_ctrls.rdQLenPdf::12                  33271                       # What read queue length does an incoming req see
system.mem_ctrls.rdQLenPdf::13                  26039                       # What read queue length does an incoming req see
system.mem_ctrls.rdQLenPdf::14                  13666                       # What read queue length does an incoming req see
system.mem_ctrls.rdQLenPdf::15                  12001                       # What read queue length does an incoming req see
system.mem_ctrls.rdQLenPdf::16                    679                       # What read queue length does an incoming req see
system.mem_ctrls.rdQLenPdf::17                    624                       # What read queue length does an incoming req see
system.mem_ctrls.rdQLenPdf::18                    492                       # What read queue length does an incoming req see
system.mem_ctrls.rdQLenPdf::19                    450                       # What read queue length does an incoming req see
system.mem_ctrls.rdQLenPdf::20                    353                       # What read queue length does an incoming req see
system.mem_ctrls.rdQLenPdf::21                    343                       # What read queue length does an incoming req see
system.mem_ctrls.rdQLenPdf::22                    385                       # What read queue length does an incoming req see
system.mem_ctrls.rdQLenPdf::23                    396                       # What read queue length does an incoming req see
system.mem_ctrls.rdQLenPdf::24                    404                       # What read queue length does an incoming req see
system.mem_ctrls.rdQLenPdf::25                    475                       # What read queue length does an incoming req see
system.mem_ctrls.rdQLenPdf::26                    628                       # What read queue length does an incoming req see
system.mem_ctrls.rdQLenPdf::27                    694                       # What read queue length does an incoming req see
system.mem_ctrls.rdQLenPdf::28                    871                       # What read queue length does an incoming req see
system.mem_ctrls.rdQLenPdf::29                    990                       # What read queue length does an incoming req see
system.mem_ctrls.rdQLenPdf::30                  70557                       # What read queue length does an incoming req see
system.mem_ctrls.rdQLenPdf::31                  70203                       # What read queue length does an incoming req see
system.mem_ctrls.wrQLenPdf::0                       1                       # What write queue length does an incoming req see
system.mem_ctrls.wrQLenPdf::1                       1                       # What write queue length does an incoming req see
system.mem_ctrls.wrQLenPdf::2                       1                       # What write queue length does an incoming req see
system.mem_ctrls.wrQLenPdf::3                       1                       # What write queue length does an incoming req see
system.mem_ctrls.wrQLenPdf::4                       1                       # What write queue length does an incoming req see
system.mem_ctrls.wrQLenPdf::5                       1                       # What write queue length does an incoming req see
system.mem_ctrls.wrQLenPdf::6                       1                       # What write queue length does an incoming req see
system.mem_ctrls.wrQLenPdf::7                       1                       # What write queue length does an incoming req see
system.mem_ctrls.wrQLenPdf::8                       1                       # What write queue length does an incoming req see
system.mem_ctrls.wrQLenPdf::9                       1                       # What write queue length does an incoming req see
system.mem_ctrls.wrQLenPdf::10                      1                       # What write queue length does an incoming req see
system.mem_ctrls.wrQLenPdf::11                      1                       # What write queue length does an incoming req see
system.mem_ctrls.wrQLenPdf::12                      1                       # What write queue length does an incoming req see
system.mem_ctrls.wrQLenPdf::13                      1                       # What write queue length does an incoming req see
system.mem_ctrls.wrQLenPdf::14                      1                       # What write queue length does an incoming req see
system.mem_ctrls.wrQLenPdf::15                   1285                       # What write queue length does an incoming req see
system.mem_ctrls.wrQLenPdf::16                   1372                       # What write queue length does an incoming req see
system.mem_ctrls.wrQLenPdf::17                  28546                       # What write queue length does an incoming req see
system.mem_ctrls.wrQLenPdf::18                  30872                       # What write queue length does an incoming req see
system.mem_ctrls.wrQLenPdf::19                  31467                       # What write queue length does an incoming req see
system.mem_ctrls.wrQLenPdf::20                  31863                       # What write queue length does an incoming req see
system.mem_ctrls.wrQLenPdf::21                  33788                       # What write queue length does an incoming req see
system.mem_ctrls.wrQLenPdf::22                  35415                       # What write queue length does an incoming req see
system.mem_ctrls.wrQLenPdf::23                  43281                       # What write queue length does an incoming req see
system.mem_ctrls.wrQLenPdf::24                  49475                       # What write queue length does an incoming req see
system.mem_ctrls.wrQLenPdf::25                  50892                       # What write queue length does an incoming req see
system.mem_ctrls.wrQLenPdf::26                  53322                       # What write queue length does an incoming req see
system.mem_ctrls.wrQLenPdf::27                  54272                       # What write queue length does an incoming req see
system.mem_ctrls.wrQLenPdf::28                  56035                       # What write queue length does an incoming req see
system.mem_ctrls.wrQLenPdf::29                  57296                       # What write queue length does an incoming req see
system.mem_ctrls.wrQLenPdf::30                  54133                       # What write queue length does an incoming req see
system.mem_ctrls.wrQLenPdf::31                  54065                       # What write queue length does an incoming req see
system.mem_ctrls.wrQLenPdf::32                  54632                       # What write queue length does an incoming req see
system.mem_ctrls.wrQLenPdf::33                  18122                       # What write queue length does an incoming req see
system.mem_ctrls.wrQLenPdf::34                   9733                       # What write queue length does an incoming req see
system.mem_ctrls.wrQLenPdf::35                   7081                       # What write queue length does an incoming req see
system.mem_ctrls.wrQLenPdf::36                   5621                       # What write queue length does an incoming req see
system.mem_ctrls.wrQLenPdf::37                   4562                       # What write queue length does an incoming req see
system.mem_ctrls.wrQLenPdf::38                   3487                       # What write queue length does an incoming req see
system.mem_ctrls.wrQLenPdf::39                   2987                       # What write queue length does an incoming req see
system.mem_ctrls.wrQLenPdf::40                   2781                       # What write queue length does an incoming req see
system.mem_ctrls.wrQLenPdf::41                   2545                       # What write queue length does an incoming req see
system.mem_ctrls.wrQLenPdf::42                   2451                       # What write queue length does an incoming req see
system.mem_ctrls.wrQLenPdf::43                   2479                       # What write queue length does an incoming req see
system.mem_ctrls.wrQLenPdf::44                   2709                       # What write queue length does an incoming req see
system.mem_ctrls.wrQLenPdf::45                   2956                       # What write queue length does an incoming req see
system.mem_ctrls.wrQLenPdf::46                   3233                       # What write queue length does an incoming req see
system.mem_ctrls.wrQLenPdf::47                   3932                       # What write queue length does an incoming req see
system.mem_ctrls.wrQLenPdf::48                   4602                       # What write queue length does an incoming req see
system.mem_ctrls.wrQLenPdf::49                   5596                       # What write queue length does an incoming req see
system.mem_ctrls.wrQLenPdf::50                   6500                       # What write queue length does an incoming req see
system.mem_ctrls.wrQLenPdf::51                   7243                       # What write queue length does an incoming req see
system.mem_ctrls.wrQLenPdf::52                   8095                       # What write queue length does an incoming req see
system.mem_ctrls.wrQLenPdf::53                   9245                       # What write queue length does an incoming req see
system.mem_ctrls.wrQLenPdf::54                  11482                       # What write queue length does an incoming req see
system.mem_ctrls.wrQLenPdf::55                  11817                       # What write queue length does an incoming req see
system.mem_ctrls.wrQLenPdf::56                  10801                       # What write queue length does an incoming req see
system.mem_ctrls.wrQLenPdf::57                   9139                       # What write queue length does an incoming req see
system.mem_ctrls.wrQLenPdf::58                   7466                       # What write queue length does an incoming req see
system.mem_ctrls.wrQLenPdf::59                   6207                       # What write queue length does an incoming req see
system.mem_ctrls.wrQLenPdf::60                   4873                       # What write queue length does an incoming req see
system.mem_ctrls.wrQLenPdf::61                   3968                       # What write queue length does an incoming req see
system.mem_ctrls.wrQLenPdf::62                  10759                       # What write queue length does an incoming req see
system.mem_ctrls.wrQLenPdf::63                   8942                       # What write queue length does an incoming req see
system.mem_ctrls.bytesPerActivate::samples       347859                       # Bytes accessed per row activation
system.mem_ctrls.bytesPerActivate::mean    455.387637                       # Bytes accessed per row activation
system.mem_ctrls.bytesPerActivate::gmean   316.851063                       # Bytes accessed per row activation
system.mem_ctrls.bytesPerActivate::stdev   364.623859                       # Bytes accessed per row activation
system.mem_ctrls.bytesPerActivate::0-127         3684      1.06%      1.06% # Bytes accessed per row activation
system.mem_ctrls.bytesPerActivate::128-255       138848     39.92%     40.97% # Bytes accessed per row activation
system.mem_ctrls.bytesPerActivate::256-383        40783     11.72%     52.70% # Bytes accessed per row activation
system.mem_ctrls.bytesPerActivate::384-511        30906      8.88%     61.58% # Bytes accessed per row activation
system.mem_ctrls.bytesPerActivate::512-639        19522      5.61%     67.19% # Bytes accessed per row activation
system.mem_ctrls.bytesPerActivate::640-767        13783      3.96%     71.16% # Bytes accessed per row activation
system.mem_ctrls.bytesPerActivate::768-895        11368      3.27%     74.42% # Bytes accessed per row activation
system.mem_ctrls.bytesPerActivate::896-1023        11314      3.25%     77.68% # Bytes accessed per row activation
system.mem_ctrls.bytesPerActivate::1024-1151        77651     22.32%    100.00% # Bytes accessed per row activation
system.mem_ctrls.bytesPerActivate::total       347859                       # Bytes accessed per row activation
system.mem_ctrls.rdPerTurnAround::samples        57524                       # Reads before turning the bus around for writes
system.mem_ctrls.rdPerTurnAround::mean      26.517975                       # Reads before turning the bus around for writes
system.mem_ctrls.rdPerTurnAround::gmean     21.340898                       # Reads before turning the bus around for writes
system.mem_ctrls.rdPerTurnAround::stdev     51.051059                       # Reads before turning the bus around for writes
system.mem_ctrls.rdPerTurnAround::0-255         57365     99.72%     99.72% # Reads before turning the bus around for writes
system.mem_ctrls.rdPerTurnAround::256-511           28      0.05%     99.77% # Reads before turning the bus around for writes
system.mem_ctrls.rdPerTurnAround::512-767          122      0.21%     99.98% # Reads before turning the bus around for writes
system.mem_ctrls.rdPerTurnAround::2048-2303            3      0.01%     99.99% # Reads before turning the bus around for writes
system.mem_ctrls.rdPerTurnAround::2304-2559            2      0.00%     99.99% # Reads before turning the bus around for writes
system.mem_ctrls.rdPerTurnAround::3584-3839            1      0.00%     99.99% # Reads before turning the bus around for writes
system.mem_ctrls.rdPerTurnAround::3840-4095            1      0.00%    100.00% # Reads before turning the bus around for writes
system.mem_ctrls.rdPerTurnAround::4608-4863            2      0.00%    100.00% # Reads before turning the bus around for writes
system.mem_ctrls.rdPerTurnAround::total         57524                       # Reads before turning the bus around for writes
system.mem_ctrls.wrPerTurnAround::samples        57524                       # Writes before turning the bus around for reads
system.mem_ctrls.wrPerTurnAround::mean      16.052587                       # Writes before turning the bus around for reads
system.mem_ctrls.wrPerTurnAround::gmean     16.048824                       # Writes before turning the bus around for reads
system.mem_ctrls.wrPerTurnAround::stdev      0.382998                       # Writes before turning the bus around for reads
system.mem_ctrls.wrPerTurnAround::16            56114     97.55%     97.55% # Writes before turning the bus around for reads
system.mem_ctrls.wrPerTurnAround::17               25      0.04%     97.59% # Writes before turning the bus around for reads
system.mem_ctrls.wrPerTurnAround::18             1296      2.25%     99.85% # Writes before turning the bus around for reads
system.mem_ctrls.wrPerTurnAround::19               64      0.11%     99.96% # Writes before turning the bus around for reads
system.mem_ctrls.wrPerTurnAround::20               12      0.02%     99.98% # Writes before turning the bus around for reads
system.mem_ctrls.wrPerTurnAround::21                2      0.00%     99.98% # Writes before turning the bus around for reads
system.mem_ctrls.wrPerTurnAround::23                1      0.00%     99.98% # Writes before turning the bus around for reads
system.mem_ctrls.wrPerTurnAround::24                1      0.00%     99.98% # Writes before turning the bus around for reads
system.mem_ctrls.wrPerTurnAround::25                1      0.00%     99.99% # Writes before turning the bus around for reads
system.mem_ctrls.wrPerTurnAround::27                1      0.00%     99.99% # Writes before turning the bus around for reads
system.mem_ctrls.wrPerTurnAround::29                2      0.00%     99.99% # Writes before turning the bus around for reads
system.mem_ctrls.wrPerTurnAround::31                1      0.00%     99.99% # Writes before turning the bus around for reads
system.mem_ctrls.wrPerTurnAround::34                1      0.00%     99.99% # Writes before turning the bus around for reads
system.mem_ctrls.wrPerTurnAround::36                1      0.00%    100.00% # Writes before turning the bus around for reads
system.mem_ctrls.wrPerTurnAround::38                2      0.00%    100.00% # Writes before turning the bus around for reads
system.mem_ctrls.wrPerTurnAround::total         57524                       # Writes before turning the bus around for reads
system.mem_ctrls.totQLat                 130832446830                       # Total ticks spent queuing
system.mem_ctrls.totMemAccLat            159927609330                       # Total ticks spent from burst creation until serviced by the DRAM
system.mem_ctrls.totBusLat                 7758710000                       # Total ticks spent in databus transfers
system.mem_ctrls.avgQLat                     84313.27                       # Average queueing delay per DRAM burst
system.mem_ctrls.avgBusLat                    5000.00                       # Average bus latency per DRAM burst
system.mem_ctrls.avgMemAccLat               103063.27                       # Average memory access latency per DRAM burst
system.mem_ctrls.avgRdBW                       253.10                       # Average DRAM read bandwidth in MiByte/s
system.mem_ctrls.avgWrBW                       150.61                       # Average achieved write bandwidth in MiByte/s
system.mem_ctrls.avgRdBWSys                    253.34                       # Average system read bandwidth in MiByte/s
system.mem_ctrls.avgWrBWSys                    150.67                       # Average system write bandwidth in MiByte/s
system.mem_ctrls.peakBW                      12800.00                       # Theoretical peak bandwidth in MiByte/s
system.mem_ctrls.busUtil                         3.15                       # Data bus utilization in percentage
system.mem_ctrls.busUtilRead                     1.98                       # Data bus utilization in percentage for reads
system.mem_ctrls.busUtilWrite                    1.18                       # Data bus utilization in percentage for writes
system.mem_ctrls.avgRdQLen                       2.33                       # Average read queue length when enqueuing
system.mem_ctrls.avgWrQLen                      27.96                       # Average write queue length when enqueuing
system.mem_ctrls.readRowHits                  1293172                       # Number of row buffer hits during reads
system.mem_ctrls.writeRowHits                  834122                       # Number of row buffer hits during writes
system.mem_ctrls.readRowHitRate                 83.34                       # Row buffer hit rate for reads
system.mem_ctrls.writeRowHitRate                90.33                       # Row buffer hit rate for writes
system.mem_ctrls.avgGap                     316819.01                       # Average gap between requests
system.mem_ctrls.pageHitRate                    85.94                       # Row buffer hit rate, read and write combined
system.mem_ctrls_0.actEnergy               1313134200                       # Energy for activate commands per rank (pJ)
system.mem_ctrls_0.preEnergy                716491875                       # Energy for precharge commands per rank (pJ)
system.mem_ctrls_0.readEnergy              6048946800                       # Energy for read commands per rank (pJ)
system.mem_ctrls_0.writeEnergy             2992314960                       # Energy for write commands per rank (pJ)
system.mem_ctrls_0.refreshEnergy          25642103760                       # Energy for refresh commands per rank (pJ)
system.mem_ctrls_0.actBackEnergy         124856412660                       # Energy for active background per rank (pJ)
system.mem_ctrls_0.preBackEnergy         126031293750                       # Energy for precharge background per rank (pJ)
system.mem_ctrls_0.totalEnergy           287600698005                       # Total energy per rank (pJ)
system.mem_ctrls_0.averagePower            732.571214                       # Core power per rank (mW)
system.mem_ctrls_0.memoryStateTime::IDLE 208571876780                       # Time in different power states
system.mem_ctrls_0.memoryStateTime::REF   13102440000                       # Time in different power states
system.mem_ctrls_0.memoryStateTime::PRE_PDN            0                       # Time in different power states
system.mem_ctrls_0.memoryStateTime::ACT  170705979470                       # Time in different power states
system.mem_ctrls_0.memoryStateTime::ACT_PDN            0                       # Time in different power states
system.mem_ctrls_1.actEnergy               1318448880                       # Energy for activate commands per rank (pJ)
system.mem_ctrls_1.preEnergy                719391750                       # Energy for precharge commands per rank (pJ)
system.mem_ctrls_1.readEnergy              6065670000                       # Energy for read commands per rank (pJ)
system.mem_ctrls_1.writeEnergy             2991375360                       # Energy for write commands per rank (pJ)
system.mem_ctrls_1.refreshEnergy          25642103760                       # Energy for refresh commands per rank (pJ)
system.mem_ctrls_1.actBackEnergy         125381120175                       # Energy for active background per rank (pJ)
system.mem_ctrls_1.preBackEnergy         125571015750                       # Energy for precharge background per rank (pJ)
system.mem_ctrls_1.totalEnergy           287689125675                       # Total energy per rank (pJ)
system.mem_ctrls_1.averagePower            732.796481                       # Core power per rank (mW)
system.mem_ctrls_1.memoryStateTime::IDLE 207897746531                       # Time in different power states
system.mem_ctrls_1.memoryStateTime::REF   13102440000                       # Time in different power states
system.mem_ctrls_1.memoryStateTime::PRE_PDN            0                       # Time in different power states
system.mem_ctrls_1.memoryStateTime::ACT  171380082219                       # Time in different power states
system.mem_ctrls_1.memoryStateTime::ACT_PDN            0                       # Time in different power states
system.ruby_clk_domain.clock                      500                       # Clock period in ticks
system.ruby.phys_mem.bytes_read::gpu.ce      18612572                       # Number of bytes read from this memory
system.ruby.phys_mem.bytes_read::gpu.shader_cores0.data      8953792                       # Number of bytes read from this memory
system.ruby.phys_mem.bytes_read::gpu.shader_cores0.inst          208                       # Number of bytes read from this memory
system.ruby.phys_mem.bytes_read::gpu.shader_cores1.data      8947040                       # Number of bytes read from this memory
system.ruby.phys_mem.bytes_read::gpu.shader_cores1.inst          192                       # Number of bytes read from this memory
system.ruby.phys_mem.bytes_read::gpu.shader_cores2.data      8970848                       # Number of bytes read from this memory
system.ruby.phys_mem.bytes_read::gpu.shader_cores2.inst          192                       # Number of bytes read from this memory
system.ruby.phys_mem.bytes_read::gpu.shader_cores3.data      8911616                       # Number of bytes read from this memory
system.ruby.phys_mem.bytes_read::gpu.shader_cores3.inst          192                       # Number of bytes read from this memory
system.ruby.phys_mem.bytes_read::switch_cpus0.inst   2114927744                       # Number of bytes read from this memory
system.ruby.phys_mem.bytes_read::switch_cpus0.data    293812031                       # Number of bytes read from this memory
system.ruby.phys_mem.bytes_read::total     2463136427                       # Number of bytes read from this memory
system.ruby.phys_mem.bytes_inst_read::gpu.shader_cores0.inst          208                       # Number of instructions bytes read from this memory
system.ruby.phys_mem.bytes_inst_read::gpu.shader_cores1.inst          192                       # Number of instructions bytes read from this memory
system.ruby.phys_mem.bytes_inst_read::gpu.shader_cores2.inst          192                       # Number of instructions bytes read from this memory
system.ruby.phys_mem.bytes_inst_read::gpu.shader_cores3.inst          192                       # Number of instructions bytes read from this memory
system.ruby.phys_mem.bytes_inst_read::switch_cpus0.inst   2114927744                       # Number of instructions bytes read from this memory
system.ruby.phys_mem.bytes_inst_read::total   2114928528                       # Number of instructions bytes read from this memory
system.ruby.phys_mem.bytes_written::gpu.ce     18612572                       # Number of bytes written to this memory
system.ruby.phys_mem.bytes_written::gpu.shader_cores0.data      2164800                       # Number of bytes written to this memory
system.ruby.phys_mem.bytes_written::gpu.shader_cores1.data      2162752                       # Number of bytes written to this memory
system.ruby.phys_mem.bytes_written::gpu.shader_cores2.data      2170816                       # Number of bytes written to this memory
system.ruby.phys_mem.bytes_written::gpu.shader_cores3.data      2152512                       # Number of bytes written to this memory
system.ruby.phys_mem.bytes_written::switch_cpus0.data    202940984                       # Number of bytes written to this memory
system.ruby.phys_mem.bytes_written::total    230204436                       # Number of bytes written to this memory
system.ruby.phys_mem.num_reads::gpu.ce         145416                       # Number of read requests responded to by this memory
system.ruby.phys_mem.num_reads::gpu.shader_cores0.data       108184                       # Number of read requests responded to by this memory
system.ruby.phys_mem.num_reads::gpu.shader_cores0.inst           13                       # Number of read requests responded to by this memory
system.ruby.phys_mem.num_reads::gpu.shader_cores1.data       108051                       # Number of read requests responded to by this memory
system.ruby.phys_mem.num_reads::gpu.shader_cores1.inst           12                       # Number of read requests responded to by this memory
system.ruby.phys_mem.num_reads::gpu.shader_cores2.data       108237                       # Number of read requests responded to by this memory
system.ruby.phys_mem.num_reads::gpu.shader_cores2.inst           12                       # Number of read requests responded to by this memory
system.ruby.phys_mem.num_reads::gpu.shader_cores3.data       107661                       # Number of read requests responded to by this memory
system.ruby.phys_mem.num_reads::gpu.shader_cores3.inst           12                       # Number of read requests responded to by this memory
system.ruby.phys_mem.num_reads::switch_cpus0.inst    264365968                       # Number of read requests responded to by this memory
system.ruby.phys_mem.num_reads::switch_cpus0.data     47558603                       # Number of read requests responded to by this memory
system.ruby.phys_mem.num_reads::total       312502169                       # Number of read requests responded to by this memory
system.ruby.phys_mem.num_writes::gpu.ce        145416                       # Number of write requests responded to by this memory
system.ruby.phys_mem.num_writes::gpu.shader_cores0.data        56290                       # Number of write requests responded to by this memory
system.ruby.phys_mem.num_writes::gpu.shader_cores1.data        56340                       # Number of write requests responded to by this memory
system.ruby.phys_mem.num_writes::gpu.shader_cores2.data        56530                       # Number of write requests responded to by this memory
system.ruby.phys_mem.num_writes::gpu.shader_cores3.data        56122                       # Number of write requests responded to by this memory
system.ruby.phys_mem.num_writes::switch_cpus0.data     32754595                       # Number of write requests responded to by this memory
system.ruby.phys_mem.num_writes::total       33125293                       # Number of write requests responded to by this memory
system.ruby.phys_mem.bw_read::gpu.ce         47434966                       # Total read bandwidth from this memory (bytes/s)
system.ruby.phys_mem.bw_read::gpu.shader_cores0.data     22819136                       # Total read bandwidth from this memory (bytes/s)
system.ruby.phys_mem.bw_read::gpu.shader_cores0.inst          530                       # Total read bandwidth from this memory (bytes/s)
system.ruby.phys_mem.bw_read::gpu.shader_cores1.data     22801929                       # Total read bandwidth from this memory (bytes/s)
system.ruby.phys_mem.bw_read::gpu.shader_cores1.inst          489                       # Total read bandwidth from this memory (bytes/s)
system.ruby.phys_mem.bw_read::gpu.shader_cores2.data     22862604                       # Total read bandwidth from this memory (bytes/s)
system.ruby.phys_mem.bw_read::gpu.shader_cores2.inst          489                       # Total read bandwidth from this memory (bytes/s)
system.ruby.phys_mem.bw_read::gpu.shader_cores3.data     22711649                       # Total read bandwidth from this memory (bytes/s)
system.ruby.phys_mem.bw_read::gpu.shader_cores3.inst          489                       # Total read bandwidth from this memory (bytes/s)
system.ruby.phys_mem.bw_read::switch_cpus0.inst   5389987265                       # Total read bandwidth from this memory (bytes/s)
system.ruby.phys_mem.bw_read::switch_cpus0.data    748793007                       # Total read bandwidth from this memory (bytes/s)
system.ruby.phys_mem.bw_read::total        6277412555                       # Total read bandwidth from this memory (bytes/s)
system.ruby.phys_mem.bw_inst_read::gpu.shader_cores0.inst          530                       # Instruction read bandwidth from this memory (bytes/s)
system.ruby.phys_mem.bw_inst_read::gpu.shader_cores1.inst          489                       # Instruction read bandwidth from this memory (bytes/s)
system.ruby.phys_mem.bw_inst_read::gpu.shader_cores2.inst          489                       # Instruction read bandwidth from this memory (bytes/s)
system.ruby.phys_mem.bw_inst_read::gpu.shader_cores3.inst          489                       # Instruction read bandwidth from this memory (bytes/s)
system.ruby.phys_mem.bw_inst_read::switch_cpus0.inst   5389987265                       # Instruction read bandwidth from this memory (bytes/s)
system.ruby.phys_mem.bw_inst_read::total   5389989263                       # Instruction read bandwidth from this memory (bytes/s)
system.ruby.phys_mem.bw_write::gpu.ce        47434966                       # Write bandwidth from this memory (bytes/s)
system.ruby.phys_mem.bw_write::gpu.shader_cores0.data      5517089                       # Write bandwidth from this memory (bytes/s)
system.ruby.phys_mem.bw_write::gpu.shader_cores1.data      5511870                       # Write bandwidth from this memory (bytes/s)
system.ruby.phys_mem.bw_write::gpu.shader_cores2.data      5532421                       # Write bandwidth from this memory (bytes/s)
system.ruby.phys_mem.bw_write::gpu.shader_cores3.data      5485772                       # Write bandwidth from this memory (bytes/s)
system.ruby.phys_mem.bw_write::switch_cpus0.data    517204109                       # Write bandwidth from this memory (bytes/s)
system.ruby.phys_mem.bw_write::total        586686227                       # Write bandwidth from this memory (bytes/s)
system.ruby.phys_mem.bw_total::gpu.ce        94869932                       # Total bandwidth to/from this memory (bytes/s)
system.ruby.phys_mem.bw_total::gpu.shader_cores0.data     28336225                       # Total bandwidth to/from this memory (bytes/s)
system.ruby.phys_mem.bw_total::gpu.shader_cores0.inst          530                       # Total bandwidth to/from this memory (bytes/s)
system.ruby.phys_mem.bw_total::gpu.shader_cores1.data     28313798                       # Total bandwidth to/from this memory (bytes/s)
system.ruby.phys_mem.bw_total::gpu.shader_cores1.inst          489                       # Total bandwidth to/from this memory (bytes/s)
system.ruby.phys_mem.bw_total::gpu.shader_cores2.data     28395025                       # Total bandwidth to/from this memory (bytes/s)
system.ruby.phys_mem.bw_total::gpu.shader_cores2.inst          489                       # Total bandwidth to/from this memory (bytes/s)
system.ruby.phys_mem.bw_total::gpu.shader_cores3.data     28197421                       # Total bandwidth to/from this memory (bytes/s)
system.ruby.phys_mem.bw_total::gpu.shader_cores3.inst          489                       # Total bandwidth to/from this memory (bytes/s)
system.ruby.phys_mem.bw_total::switch_cpus0.inst   5389987265                       # Total bandwidth to/from this memory (bytes/s)
system.ruby.phys_mem.bw_total::switch_cpus0.data   1265997116                       # Total bandwidth to/from this memory (bytes/s)
system.ruby.phys_mem.bw_total::total       6864098782                       # Total bandwidth to/from this memory (bytes/s)
system.cpu_voltage_domain.voltage                   1                       # Voltage in Volts
system.cpu_clk_domain.clock                       500                       # Clock period in ticks
system.cpu0.apic_clk_domain.clock                8000                       # Clock period in ticks
system.cpu0.workload.num_syscalls                 155                       # Number of system calls
system.cpu0.numCycles                               0                       # number of cpu cycles simulated
system.cpu0.numWorkItemsStarted                     0                       # number of work items this cpu started
system.cpu0.numWorkItemsCompleted                   0                       # number of work items this cpu completed
system.cpu0.committedInsts                          0                       # Number of instructions committed
system.cpu0.committedOps                            0                       # Number of ops (including micro ops) committed
system.cpu0.num_int_alu_accesses                    0                       # Number of integer alu accesses
system.cpu0.num_fp_alu_accesses                     0                       # Number of float alu accesses
system.cpu0.num_func_calls                          0                       # number of times a function call or return occured
system.cpu0.num_conditional_control_insts            0                       # number of instructions that are conditional controls
system.cpu0.num_int_insts                           0                       # number of integer instructions
system.cpu0.num_fp_insts                            0                       # number of float instructions
system.cpu0.num_int_register_reads                  0                       # number of times the integer registers were read
system.cpu0.num_int_register_writes                 0                       # number of times the integer registers were written
system.cpu0.num_fp_register_reads                   0                       # number of times the floating registers were read
system.cpu0.num_fp_register_writes                  0                       # number of times the floating registers were written
system.cpu0.num_mem_refs                            0                       # number of memory refs
system.cpu0.num_load_insts                          0                       # Number of load instructions
system.cpu0.num_store_insts                         0                       # Number of store instructions
system.cpu0.num_idle_cycles                         0                       # Number of idle cycles
system.cpu0.num_busy_cycles                         0                       # Number of busy cycles
system.cpu0.not_idle_fraction                       1                       # Percentage of non-idle cycles
system.cpu0.idle_fraction                           0                       # Percentage of idle cycles
system.cpu0.op_class::No_OpClass                    0                       # Class of executed instruction
system.cpu0.op_class::IntAlu                        0                       # Class of executed instruction
system.cpu0.op_class::IntMult                       0                       # Class of executed instruction
system.cpu0.op_class::IntDiv                        0                       # Class of executed instruction
system.cpu0.op_class::FloatAdd                      0                       # Class of executed instruction
system.cpu0.op_class::FloatCmp                      0                       # Class of executed instruction
system.cpu0.op_class::FloatCvt                      0                       # Class of executed instruction
system.cpu0.op_class::FloatMult                     0                       # Class of executed instruction
system.cpu0.op_class::FloatDiv                      0                       # Class of executed instruction
system.cpu0.op_class::FloatSqrt                     0                       # Class of executed instruction
system.cpu0.op_class::SimdAdd                       0                       # Class of executed instruction
system.cpu0.op_class::SimdAddAcc                    0                       # Class of executed instruction
system.cpu0.op_class::SimdAlu                       0                       # Class of executed instruction
system.cpu0.op_class::SimdCmp                       0                       # Class of executed instruction
system.cpu0.op_class::SimdCvt                       0                       # Class of executed instruction
system.cpu0.op_class::SimdMisc                      0                       # Class of executed instruction
system.cpu0.op_class::SimdMult                      0                       # Class of executed instruction
system.cpu0.op_class::SimdMultAcc                   0                       # Class of executed instruction
system.cpu0.op_class::SimdShift                     0                       # Class of executed instruction
system.cpu0.op_class::SimdShiftAcc                  0                       # Class of executed instruction
system.cpu0.op_class::SimdSqrt                      0                       # Class of executed instruction
system.cpu0.op_class::SimdFloatAdd                  0                       # Class of executed instruction
system.cpu0.op_class::SimdFloatAlu                  0                       # Class of executed instruction
system.cpu0.op_class::SimdFloatCmp                  0                       # Class of executed instruction
system.cpu0.op_class::SimdFloatCvt                  0                       # Class of executed instruction
system.cpu0.op_class::SimdFloatDiv                  0                       # Class of executed instruction
system.cpu0.op_class::SimdFloatMisc                 0                       # Class of executed instruction
system.cpu0.op_class::SimdFloatMult                 0                       # Class of executed instruction
system.cpu0.op_class::SimdFloatMultAcc              0                       # Class of executed instruction
system.cpu0.op_class::SimdFloatSqrt                 0                       # Class of executed instruction
system.cpu0.op_class::MemRead                       0                       # Class of executed instruction
system.cpu0.op_class::MemWrite                      0                       # Class of executed instruction
system.cpu0.op_class::IprAccess                     0                       # Class of executed instruction
system.cpu0.op_class::InstPrefetch                  0                       # Class of executed instruction
system.cpu0.op_class::total                         0                       # Class of executed instruction
system.cpu1.apic_clk_domain.clock                8000                       # Clock period in ticks
system.cpu1.numCycles                               0                       # number of cpu cycles simulated
system.cpu1.numWorkItemsStarted                     0                       # number of work items this cpu started
system.cpu1.numWorkItemsCompleted                   0                       # number of work items this cpu completed
system.cpu1.committedInsts                          0                       # Number of instructions committed
system.cpu1.committedOps                            0                       # Number of ops (including micro ops) committed
system.cpu1.num_int_alu_accesses                    0                       # Number of integer alu accesses
system.cpu1.num_fp_alu_accesses                     0                       # Number of float alu accesses
system.cpu1.num_func_calls                          0                       # number of times a function call or return occured
system.cpu1.num_conditional_control_insts            0                       # number of instructions that are conditional controls
system.cpu1.num_int_insts                           0                       # number of integer instructions
system.cpu1.num_fp_insts                            0                       # number of float instructions
system.cpu1.num_int_register_reads                  0                       # number of times the integer registers were read
system.cpu1.num_int_register_writes                 0                       # number of times the integer registers were written
system.cpu1.num_fp_register_reads                   0                       # number of times the floating registers were read
system.cpu1.num_fp_register_writes                  0                       # number of times the floating registers were written
system.cpu1.num_mem_refs                            0                       # number of memory refs
system.cpu1.num_load_insts                          0                       # Number of load instructions
system.cpu1.num_store_insts                         0                       # Number of store instructions
system.cpu1.num_idle_cycles                         0                       # Number of idle cycles
system.cpu1.num_busy_cycles                         0                       # Number of busy cycles
system.cpu1.not_idle_fraction                       0                       # Percentage of non-idle cycles
system.cpu1.idle_fraction                           1                       # Percentage of idle cycles
system.cpu1.op_class::No_OpClass                    0                       # Class of executed instruction
system.cpu1.op_class::IntAlu                        0                       # Class of executed instruction
system.cpu1.op_class::IntMult                       0                       # Class of executed instruction
system.cpu1.op_class::IntDiv                        0                       # Class of executed instruction
system.cpu1.op_class::FloatAdd                      0                       # Class of executed instruction
system.cpu1.op_class::FloatCmp                      0                       # Class of executed instruction
system.cpu1.op_class::FloatCvt                      0                       # Class of executed instruction
system.cpu1.op_class::FloatMult                     0                       # Class of executed instruction
system.cpu1.op_class::FloatDiv                      0                       # Class of executed instruction
system.cpu1.op_class::FloatSqrt                     0                       # Class of executed instruction
system.cpu1.op_class::SimdAdd                       0                       # Class of executed instruction
system.cpu1.op_class::SimdAddAcc                    0                       # Class of executed instruction
system.cpu1.op_class::SimdAlu                       0                       # Class of executed instruction
system.cpu1.op_class::SimdCmp                       0                       # Class of executed instruction
system.cpu1.op_class::SimdCvt                       0                       # Class of executed instruction
system.cpu1.op_class::SimdMisc                      0                       # Class of executed instruction
system.cpu1.op_class::SimdMult                      0                       # Class of executed instruction
system.cpu1.op_class::SimdMultAcc                   0                       # Class of executed instruction
system.cpu1.op_class::SimdShift                     0                       # Class of executed instruction
system.cpu1.op_class::SimdShiftAcc                  0                       # Class of executed instruction
system.cpu1.op_class::SimdSqrt                      0                       # Class of executed instruction
system.cpu1.op_class::SimdFloatAdd                  0                       # Class of executed instruction
system.cpu1.op_class::SimdFloatAlu                  0                       # Class of executed instruction
system.cpu1.op_class::SimdFloatCmp                  0                       # Class of executed instruction
system.cpu1.op_class::SimdFloatCvt                  0                       # Class of executed instruction
system.cpu1.op_class::SimdFloatDiv                  0                       # Class of executed instruction
system.cpu1.op_class::SimdFloatMisc                 0                       # Class of executed instruction
system.cpu1.op_class::SimdFloatMult                 0                       # Class of executed instruction
system.cpu1.op_class::SimdFloatMultAcc              0                       # Class of executed instruction
system.cpu1.op_class::SimdFloatSqrt                 0                       # Class of executed instruction
system.cpu1.op_class::MemRead                       0                       # Class of executed instruction
system.cpu1.op_class::MemWrite                      0                       # Class of executed instruction
system.cpu1.op_class::IprAccess                     0                       # Class of executed instruction
system.cpu1.op_class::InstPrefetch                  0                       # Class of executed instruction
system.cpu1.op_class::total                         0                       # Class of executed instruction
system.gpu.clk_domain.voltage_domain.voltage            1                       # Voltage in Volts
system.gpu.clk_domain.clock                      1429                       # Clock period in ticks
system.gpu.dram_wrapper.clk_domain.clock          541                       # Clock period in ticks
system.gpu.icnt_wrapper.clk_domain.clock         2858                       # Clock period in ticks
system.ruby.delayHist::bucket_size                256                       # delay histogram for all message
system.ruby.delayHist::max_bucket                2559                       # delay histogram for all message
system.ruby.delayHist::samples                7403804                       # delay histogram for all message
system.ruby.delayHist::mean                  4.876470                       # delay histogram for all message
system.ruby.delayHist::stdev                40.342113                       # delay histogram for all message
system.ruby.delayHist                    |     7384120     99.73%     99.73% |        8580      0.12%     99.85% |        4547      0.06%     99.91% |        3319      0.04%     99.96% |        1949      0.03%     99.98% |         805      0.01%     99.99% |         326      0.00%    100.00% |         127      0.00%    100.00% |          27      0.00%    100.00% |           4      0.00%    100.00% # delay histogram for all message
system.ruby.delayHist::total                  7403804                       # delay histogram for all message
system.ruby.outstanding_req_hist::bucket_size            8                      
system.ruby.outstanding_req_hist::max_bucket           79                      
system.ruby.outstanding_req_hist::samples    345627463                      
system.ruby.outstanding_req_hist::mean       1.086360                      
system.ruby.outstanding_req_hist::gmean      1.008149                      
system.ruby.outstanding_req_hist::stdev      2.061438                      
system.ruby.outstanding_req_hist         |   344860055     99.78%     99.78% |      114492      0.03%     99.81% |      127338      0.04%     99.85% |      107691      0.03%     99.88% |       85512      0.02%     99.90% |       40803      0.01%     99.92% |        1203      0.00%     99.92% |          80      0.00%     99.92% |      290289      0.08%    100.00% |           0      0.00%    100.00%
system.ruby.outstanding_req_hist::total     345627463                      
system.ruby.latency_hist::bucket_size            2048                      
system.ruby.latency_hist::max_bucket            20479                      
system.ruby.latency_hist::samples           345627462                      
system.ruby.latency_hist::mean               4.944227                      
system.ruby.latency_hist::gmean              1.020287                      
system.ruby.latency_hist::stdev            136.608034                      
system.ruby.latency_hist                 |   345358300     99.92%     99.92% |      127785      0.04%     99.96% |       86899      0.03%     99.98% |       42746      0.01%    100.00% |       11678      0.00%    100.00% |          54      0.00%    100.00% |           0      0.00%    100.00% |           0      0.00%    100.00% |           0      0.00%    100.00% |           0      0.00%    100.00%
system.ruby.latency_hist::total             345627462                      
system.ruby.hit_latency_hist::bucket_size            1                      
system.ruby.hit_latency_hist::max_bucket            9                      
system.ruby.hit_latency_hist::samples       344172824                      
system.ruby.hit_latency_hist::mean                  1                      
system.ruby.hit_latency_hist::gmean                 1                      
system.ruby.hit_latency_hist             |           0      0.00%      0.00% |   344172824    100.00%    100.00% |           0      0.00%    100.00% |           0      0.00%    100.00% |           0      0.00%    100.00% |           0      0.00%    100.00% |           0      0.00%    100.00% |           0      0.00%    100.00% |           0      0.00%    100.00% |           0      0.00%    100.00%
system.ruby.hit_latency_hist::total         344172824                      
system.ruby.miss_latency_hist::bucket_size         2048                      
system.ruby.miss_latency_hist::max_bucket        20479                      
system.ruby.miss_latency_hist::samples        1454638                      
system.ruby.miss_latency_hist::mean        938.163089                      
system.ruby.miss_latency_hist::gmean       118.160200                      
system.ruby.miss_latency_hist::stdev      1886.670980                      
system.ruby.miss_latency_hist            |     1185476     81.50%     81.50% |      127785      8.78%     90.28% |       86899      5.97%     96.25% |       42746      2.94%     99.19% |       11678      0.80%    100.00% |          54      0.00%    100.00% |           0      0.00%    100.00% |           0      0.00%    100.00% |           0      0.00%    100.00% |           0      0.00%    100.00%
system.ruby.miss_latency_hist::total          1454638                      
system.gpu.shader_mmu.numPagefaults                 0                       # Number of Pagefaults
system.gpu.shader_mmu.numPagewalks              45775                       # Number of Pagewalks
system.gpu.shader_mmu.totalRequests             45775                       # Total number of requests
system.gpu.shader_mmu.l2hits                        0                       # Hits in the shared L2
system.gpu.shader_mmu.prefetchHits                  0                       # Number of prefetch hits
system.gpu.shader_mmu.numPrefetches                 0                       # Number of prefetchs
system.gpu.shader_mmu.prefetchFaults                0                       # Number of faults caused by prefetches
system.gpu.shader_mmu.pagefaultLatency::samples            0                       # Latency to complete the pagefault
system.gpu.shader_mmu.pagefaultLatency::mean          nan                       # Latency to complete the pagefault
system.gpu.shader_mmu.pagefaultLatency::gmean          nan                       # Latency to complete the pagefault
system.gpu.shader_mmu.pagefaultLatency::stdev          nan                       # Latency to complete the pagefault
system.gpu.shader_mmu.pagefaultLatency::0            0                       # Latency to complete the pagefault
system.gpu.shader_mmu.pagefaultLatency::1            0                       # Latency to complete the pagefault
system.gpu.shader_mmu.pagefaultLatency::2            0                       # Latency to complete the pagefault
system.gpu.shader_mmu.pagefaultLatency::3            0                       # Latency to complete the pagefault
system.gpu.shader_mmu.pagefaultLatency::4            0                       # Latency to complete the pagefault
system.gpu.shader_mmu.pagefaultLatency::5            0                       # Latency to complete the pagefault
system.gpu.shader_mmu.pagefaultLatency::6            0                       # Latency to complete the pagefault
system.gpu.shader_mmu.pagefaultLatency::7            0                       # Latency to complete the pagefault
system.gpu.shader_mmu.pagefaultLatency::8            0                       # Latency to complete the pagefault
system.gpu.shader_mmu.pagefaultLatency::9            0                       # Latency to complete the pagefault
system.gpu.shader_mmu.pagefaultLatency::10            0                       # Latency to complete the pagefault
system.gpu.shader_mmu.pagefaultLatency::11            0                       # Latency to complete the pagefault
system.gpu.shader_mmu.pagefaultLatency::12            0                       # Latency to complete the pagefault
system.gpu.shader_mmu.pagefaultLatency::13            0                       # Latency to complete the pagefault
system.gpu.shader_mmu.pagefaultLatency::14            0                       # Latency to complete the pagefault
system.gpu.shader_mmu.pagefaultLatency::15            0                       # Latency to complete the pagefault
system.gpu.shader_mmu.pagefaultLatency::16            0                       # Latency to complete the pagefault
system.gpu.shader_mmu.pagefaultLatency::17            0                       # Latency to complete the pagefault
system.gpu.shader_mmu.pagefaultLatency::18            0                       # Latency to complete the pagefault
system.gpu.shader_mmu.pagefaultLatency::19            0                       # Latency to complete the pagefault
system.gpu.shader_mmu.pagefaultLatency::20            0                       # Latency to complete the pagefault
system.gpu.shader_mmu.pagefaultLatency::21            0                       # Latency to complete the pagefault
system.gpu.shader_mmu.pagefaultLatency::22            0                       # Latency to complete the pagefault
system.gpu.shader_mmu.pagefaultLatency::23            0                       # Latency to complete the pagefault
system.gpu.shader_mmu.pagefaultLatency::24            0                       # Latency to complete the pagefault
system.gpu.shader_mmu.pagefaultLatency::25            0                       # Latency to complete the pagefault
system.gpu.shader_mmu.pagefaultLatency::26            0                       # Latency to complete the pagefault
system.gpu.shader_mmu.pagefaultLatency::27            0                       # Latency to complete the pagefault
system.gpu.shader_mmu.pagefaultLatency::28            0                       # Latency to complete the pagefault
system.gpu.shader_mmu.pagefaultLatency::29            0                       # Latency to complete the pagefault
system.gpu.shader_mmu.pagefaultLatency::30            0                       # Latency to complete the pagefault
system.gpu.shader_mmu.pagefaultLatency::31            0                       # Latency to complete the pagefault
system.gpu.shader_mmu.pagefaultLatency::total            0                       # Latency to complete the pagefault
system.gpu.shader_mmu.concurrentWalks::samples        45775                       # Number of outstanding walks
system.gpu.shader_mmu.concurrentWalks::mean            0                       # Number of outstanding walks
system.gpu.shader_mmu.concurrentWalks::gmean            0                       # Number of outstanding walks
system.gpu.shader_mmu.concurrentWalks::stdev            0                       # Number of outstanding walks
system.gpu.shader_mmu.concurrentWalks::0        45775    100.00%    100.00% # Number of outstanding walks
system.gpu.shader_mmu.concurrentWalks::1            0      0.00%    100.00% # Number of outstanding walks
system.gpu.shader_mmu.concurrentWalks::2            0      0.00%    100.00% # Number of outstanding walks
system.gpu.shader_mmu.concurrentWalks::3            0      0.00%    100.00% # Number of outstanding walks
system.gpu.shader_mmu.concurrentWalks::4            0      0.00%    100.00% # Number of outstanding walks
system.gpu.shader_mmu.concurrentWalks::5            0      0.00%    100.00% # Number of outstanding walks
system.gpu.shader_mmu.concurrentWalks::6            0      0.00%    100.00% # Number of outstanding walks
system.gpu.shader_mmu.concurrentWalks::7            0      0.00%    100.00% # Number of outstanding walks
system.gpu.shader_mmu.concurrentWalks::8            0      0.00%    100.00% # Number of outstanding walks
system.gpu.shader_mmu.concurrentWalks::9            0      0.00%    100.00% # Number of outstanding walks
system.gpu.shader_mmu.concurrentWalks::10            0      0.00%    100.00% # Number of outstanding walks
system.gpu.shader_mmu.concurrentWalks::11            0      0.00%    100.00% # Number of outstanding walks
system.gpu.shader_mmu.concurrentWalks::12            0      0.00%    100.00% # Number of outstanding walks
system.gpu.shader_mmu.concurrentWalks::13            0      0.00%    100.00% # Number of outstanding walks
system.gpu.shader_mmu.concurrentWalks::14            0      0.00%    100.00% # Number of outstanding walks
system.gpu.shader_mmu.concurrentWalks::15            0      0.00%    100.00% # Number of outstanding walks
system.gpu.shader_mmu.concurrentWalks::total        45775                       # Number of outstanding walks
system.gpu.shader_mmu.pagewalkLatency::samples        45775                       # Latency to complete the pagewalk
system.gpu.shader_mmu.pagewalkLatency::mean            0                       # Latency to complete the pagewalk
system.gpu.shader_mmu.pagewalkLatency::gmean            0                       # Latency to complete the pagewalk
system.gpu.shader_mmu.pagewalkLatency::stdev            0                       # Latency to complete the pagewalk
system.gpu.shader_mmu.pagewalkLatency::0        45775    100.00%    100.00% # Latency to complete the pagewalk
system.gpu.shader_mmu.pagewalkLatency::1            0      0.00%    100.00% # Latency to complete the pagewalk
system.gpu.shader_mmu.pagewalkLatency::2            0      0.00%    100.00% # Latency to complete the pagewalk
system.gpu.shader_mmu.pagewalkLatency::3            0      0.00%    100.00% # Latency to complete the pagewalk
system.gpu.shader_mmu.pagewalkLatency::4            0      0.00%    100.00% # Latency to complete the pagewalk
system.gpu.shader_mmu.pagewalkLatency::5            0      0.00%    100.00% # Latency to complete the pagewalk
system.gpu.shader_mmu.pagewalkLatency::6            0      0.00%    100.00% # Latency to complete the pagewalk
system.gpu.shader_mmu.pagewalkLatency::7            0      0.00%    100.00% # Latency to complete the pagewalk
system.gpu.shader_mmu.pagewalkLatency::8            0      0.00%    100.00% # Latency to complete the pagewalk
system.gpu.shader_mmu.pagewalkLatency::9            0      0.00%    100.00% # Latency to complete the pagewalk
system.gpu.shader_mmu.pagewalkLatency::10            0      0.00%    100.00% # Latency to complete the pagewalk
system.gpu.shader_mmu.pagewalkLatency::11            0      0.00%    100.00% # Latency to complete the pagewalk
system.gpu.shader_mmu.pagewalkLatency::12            0      0.00%    100.00% # Latency to complete the pagewalk
system.gpu.shader_mmu.pagewalkLatency::13            0      0.00%    100.00% # Latency to complete the pagewalk
system.gpu.shader_mmu.pagewalkLatency::14            0      0.00%    100.00% # Latency to complete the pagewalk
system.gpu.shader_mmu.pagewalkLatency::15            0      0.00%    100.00% # Latency to complete the pagewalk
system.gpu.shader_mmu.pagewalkLatency::16            0      0.00%    100.00% # Latency to complete the pagewalk
system.gpu.shader_mmu.pagewalkLatency::17            0      0.00%    100.00% # Latency to complete the pagewalk
system.gpu.shader_mmu.pagewalkLatency::18            0      0.00%    100.00% # Latency to complete the pagewalk
system.gpu.shader_mmu.pagewalkLatency::19            0      0.00%    100.00% # Latency to complete the pagewalk
system.gpu.shader_mmu.pagewalkLatency::20            0      0.00%    100.00% # Latency to complete the pagewalk
system.gpu.shader_mmu.pagewalkLatency::21            0      0.00%    100.00% # Latency to complete the pagewalk
system.gpu.shader_mmu.pagewalkLatency::22            0      0.00%    100.00% # Latency to complete the pagewalk
system.gpu.shader_mmu.pagewalkLatency::23            0      0.00%    100.00% # Latency to complete the pagewalk
system.gpu.shader_mmu.pagewalkLatency::24            0      0.00%    100.00% # Latency to complete the pagewalk
system.gpu.shader_mmu.pagewalkLatency::25            0      0.00%    100.00% # Latency to complete the pagewalk
system.gpu.shader_mmu.pagewalkLatency::26            0      0.00%    100.00% # Latency to complete the pagewalk
system.gpu.shader_mmu.pagewalkLatency::27            0      0.00%    100.00% # Latency to complete the pagewalk
system.gpu.shader_mmu.pagewalkLatency::28            0      0.00%    100.00% # Latency to complete the pagewalk
system.gpu.shader_mmu.pagewalkLatency::29            0      0.00%    100.00% # Latency to complete the pagewalk
system.gpu.shader_mmu.pagewalkLatency::30            0      0.00%    100.00% # Latency to complete the pagewalk
system.gpu.shader_mmu.pagewalkLatency::31            0      0.00%    100.00% # Latency to complete the pagewalk
system.gpu.shader_mmu.pagewalkLatency::total        45775                       # Latency to complete the pagewalk
system.gpu.kernels_started                          2                       # Number of kernels started
system.gpu.kernels_completed                        2                       # Number of kernels completed
system.gpu.ce.device_dtb.hits                       0                       # Number of hits in this TLB
system.gpu.ce.device_dtb.misses                     0                       # Number of misses in this TLB
system.gpu.ce.device_dtb.hitRate                  nan                       # Hit rate for this TLB
system.gpu.ce.host_dtb.hits                     99642                       # Number of hits in this TLB
system.gpu.ce.host_dtb.misses                   45775                       # Number of misses in this TLB
system.gpu.ce.host_dtb.hitRate               0.685216                       # Hit rate for this TLB
system.gpu.ce.numOperations                         8                       # Number of copy/memset operations
system.gpu.ce.opBytesRead                    18612572                       # Number of copy bytes read
system.gpu.ce.opBytesWritten                 18612572                       # Number of copy/memset bytes written
system.gpu.ce.opTimeTicks                  6222044984                       # Total time spent in copy/memset operations
system.gpu.shader_cores0.itb.hits                   0                       # Number of hits in this TLB
system.gpu.shader_cores0.itb.misses                 0                       # Number of misses in this TLB
system.gpu.shader_cores0.itb.hitRate              nan                       # Hit rate for this TLB
system.gpu.shader_cores0.local_loads                0                       # Number of loads from local space
system.gpu.shader_cores0.local_stores               0                       # Number of stores to local space
system.gpu.shader_cores0.shared_loads         1031184                       # Number of loads from shared space
system.gpu.shader_cores0.shared_stores         785664                       # Number of stores to shared space
system.gpu.shader_cores0.param_kernel_loads      1868512                       # Number of loads from kernel parameter space
system.gpu.shader_cores0.param_local_loads            0                       # Number of loads from local parameter space
system.gpu.shader_cores0.param_local_stores            0                       # Number of stores to local parameter space
system.gpu.shader_cores0.const_loads                0                       # Number of loads from constant space
system.gpu.shader_cores0.tex_loads                  0                       # Number of loads from texture space
system.gpu.shader_cores0.global_loads         2115136                       # Number of loads from global space
system.gpu.shader_cores0.global_stores         541200                       # Number of stores to global space
system.gpu.shader_cores0.surf_loads                 0                       # Number of loads from surface space
system.gpu.shader_cores0.generic_loads              0                       # Number of loads from generic spaces (global, shared, local)
system.gpu.shader_cores0.generic_stores             0                       # Number of stores to generic spaces (global, shared, local)
system.gpu.shader_cores0.inst_cache_requests           13                       # Number of instruction cache requests sent
system.gpu.shader_cores0.inst_cache_retries            0                       # Number of instruction cache retries
system.gpu.shader_cores0.inst_counts::0             0                       # Inst counts: 1: ALU, 2: MAD, 3: CTRL, 4: SFU, 5: MEM, 6: TEX, 7: NOP
system.gpu.shader_cores0.inst_counts::1      33318368                       # Inst counts: 1: ALU, 2: MAD, 3: CTRL, 4: SFU, 5: MEM, 6: TEX, 7: NOP
system.gpu.shader_cores0.inst_counts::2        524832                       # Inst counts: 1: ALU, 2: MAD, 3: CTRL, 4: SFU, 5: MEM, 6: TEX, 7: NOP
system.gpu.shader_cores0.inst_counts::3       4961024                       # Inst counts: 1: ALU, 2: MAD, 3: CTRL, 4: SFU, 5: MEM, 6: TEX, 7: NOP
system.gpu.shader_cores0.inst_counts::4       1571328                       # Inst counts: 1: ALU, 2: MAD, 3: CTRL, 4: SFU, 5: MEM, 6: TEX, 7: NOP
system.gpu.shader_cores0.inst_counts::5       6341696                       # Inst counts: 1: ALU, 2: MAD, 3: CTRL, 4: SFU, 5: MEM, 6: TEX, 7: NOP
system.gpu.shader_cores0.inst_counts::6             0                       # Inst counts: 1: ALU, 2: MAD, 3: CTRL, 4: SFU, 5: MEM, 6: TEX, 7: NOP
system.gpu.shader_cores0.inst_counts::7             0                       # Inst counts: 1: ALU, 2: MAD, 3: CTRL, 4: SFU, 5: MEM, 6: TEX, 7: NOP
system.gpu.shader_cores0.activeCycles         2418312                       # Number of cycles this shader was executing a CTA
system.gpu.shader_cores0.notStalledCycles      1176581                       # Number of cycles this shader was actually executing at least one instance
system.gpu.shader_cores0.instInstances       46717248                       # Total instructions executed by all PEs in the core
system.gpu.shader_cores0.instPerCycle       19.318123                       # Instruction instances per cycle
system.gpu.shader_cores0.kernels_completed            2                       # Number of kernels completed
system.gpu.shader_cores0.lsq.data_tlb.hits            0                       # Number of hits in this TLB
system.gpu.shader_cores0.lsq.data_tlb.misses            0                       # Number of misses in this TLB
system.gpu.shader_cores0.lsq.data_tlb.hitRate          nan                       # Hit rate for this TLB
system.gpu.shader_cores0.lsq.warpInstBufActive::samples   3454321700                       # Histogram of number of active warp inst buffers at a given time
[...]
system.ruby.L1Cache_Controller.NP.Store::total       461019                      
system.ruby.L1Cache_Controller.NP.Inv    |         117      0.89%      0.89% |           0      0.00%      0.89% |        3247     24.69%     25.58% |        3250     24.71%     50.29% |        3223     24.51%     74.79% |        3308     25.15%     99.95% |           0      0.00%     99.95% |           7      0.05%    100.00%
system.ruby.L1Cache_Controller.NP.Inv::total        13152                      
system.ruby.L1Cache_Controller.I.Load    |        1039     54.43%     54.43% |           0      0.00%     54.43% |         191     10.01%     64.43% |         218     11.42%     75.85% |         216     11.31%     87.17% |         245     12.83%    100.00% |           0      0.00%    100.00% |           0      0.00%    100.00%
system.ruby.L1Cache_Controller.I.Load::total         1909                      
system.ruby.L1Cache_Controller.I.Ifetch  |        3718    100.00%    100.00% |           0      0.00%    100.00% |           0      0.00%    100.00% |           0      0.00%    100.00% |           0      0.00%    100.00% |           0      0.00%    100.00% |           0      0.00%    100.00% |           0      0.00%    100.00%
system.ruby.L1Cache_Controller.I.Ifetch::total         3718                      
system.ruby.L1Cache_Controller.I.Store   |         354      5.34%      5.34% |           0      0.00%      5.34% |        1494     22.54%     27.88% |        1521     22.95%     50.83% |        1613     24.34%     75.17% |        1646     24.83%    100.00% |           0      0.00%    100.00% |           0      0.00%    100.00%
system.ruby.L1Cache_Controller.I.Store::total         6628                      
system.ruby.L1Cache_Controller.I.L1_Replacement |         691      1.63%      1.63% |           0      0.00%      1.63% |       10546     24.84%     26.46% |       10394     24.48%     50.94% |       10462     24.64%     75.58% |       10344     24.36%     99.95% |           0      0.00%     99.95% |          23      0.05%    100.00%
system.ruby.L1Cache_Controller.I.L1_Replacement::total        42460                      
system.ruby.L1Cache_Controller.S.Load    |          81      0.05%      0.05% |           0      0.00%      0.05% |       39256     25.06%     25.12% |       39166     25.01%     50.12% |       38832     24.79%     74.92% |       39284     25.08%    100.00% |           0      0.00%    100.00% |           0      0.00%    100.00%
system.ruby.L1Cache_Controller.S.Load::total       156619                      
system.ruby.L1Cache_Controller.S.Ifetch  |   263900406    100.00%    100.00% |           0      0.00%    100.00% |           0      0.00%    100.00% |           0      0.00%    100.00% |           0      0.00%    100.00% |           0      0.00%    100.00% |           0      0.00%    100.00% |           0      0.00%    100.00%
system.ruby.L1Cache_Controller.S.Ifetch::total    263900406                      
system.ruby.L1Cache_Controller.S.Store   |           0      0.00%      0.00% |           0      0.00%      0.00% |        2059     25.44%     25.44% |        2051     25.34%     50.78% |        1961     24.23%     75.02% |        2022     24.98%    100.00% |           0      0.00%    100.00% |           0      0.00%    100.00%
system.ruby.L1Cache_Controller.S.Store::total         8093                      
system.ruby.L1Cache_Controller.S.Inv     |        4050     23.91%     23.91% |           0      0.00%     23.91% |        3185     18.80%     42.71% |        3175     18.74%     61.45% |        3211     18.96%     80.41% |        3316     19.57%     99.98% |           0      0.00%     99.98% |           3      0.02%    100.00%
system.ruby.L1Cache_Controller.S.Inv::total        16940                      
system.ruby.L1Cache_Controller.S.L1_Replacement |      461728     97.25%     97.25% |           0      0.00%     97.25% |        3249      0.68%     97.94% |        3251      0.68%     98.62% |        3223      0.68%     99.30% |        3310      0.70%    100.00% |           0      0.00%    100.00% |           7      0.00%    100.00%
system.ruby.L1Cache_Controller.S.L1_Replacement::total       474768                      
system.ruby.L1Cache_Controller.E.Load    |    10589017     98.66%     98.66% |           0      0.00%     98.66% |       36082      0.34%     99.00% |       35992      0.34%     99.33% |       36442      0.34%     99.67% |       35354      0.33%    100.00% |           0      0.00%    100.00% |           0      0.00%    100.00%
system.ruby.L1Cache_Controller.E.Load::total     10732887                      
system.ruby.L1Cache_Controller.E.Store   |        2402      3.69%      3.69% |           0      0.00%      3.69% |       15636     24.01%     27.70% |       15703     24.11%     51.81% |       15797     24.26%     76.07% |       15582     23.93%    100.00% |           0      0.00%    100.00% |           0      0.00%    100.00%
system.ruby.L1Cache_Controller.E.Store::total        65120                      
system.ruby.L1Cache_Controller.E.Inv     |         972     11.32%     11.32% |           0      0.00%     11.32% |        1866     21.73%     33.05% |        1907     22.21%     55.25% |        1952     22.73%     77.98% |        1891     22.02%    100.00% |           0      0.00%    100.00% |           0      0.00%    100.00%
system.ruby.L1Cache_Controller.E.Inv::total         8588                      
system.ruby.L1Cache_Controller.E.L1_Replacement |      237254     58.43%     58.43% |           0      0.00%     58.43% |        5855      1.44%     59.87% |        5847      1.44%     61.31% |        5864      1.44%     62.75% |        5827      1.44%     64.19% |           0      0.00%     64.19% |      145414     35.81%    100.00%
system.ruby.L1Cache_Controller.E.L1_Replacement::total       406061                      
system.ruby.L1Cache_Controller.E.Fwd_GETS |           1      0.02%      0.02% |           0      0.00%      0.02% |        1429     25.81%     25.83% |        1404     25.36%     51.18% |        1395     25.19%     76.38% |        1308     23.62%    100.00% |           0      0.00%    100.00% |           0      0.00%    100.00%
system.ruby.L1Cache_Controller.E.Fwd_GETS::total         5537                      
system.ruby.L1Cache_Controller.M.Load    |    33593598     99.99%     99.99% |           0      0.00%     99.99% |        1207      0.00%     99.99% |        1156      0.00%     99.99% |        1154      0.00%    100.00% |        1257      0.00%    100.00% |           0      0.00%    100.00% |           0      0.00%    100.00%
system.ruby.L1Cache_Controller.M.Load::total     33598372                      
system.ruby.L1Cache_Controller.M.Store   |    35575204     99.60%     99.60% |           0      0.00%     99.60% |       36100      0.10%     99.70% |       36073      0.10%     99.80% |       36169      0.10%     99.90% |       35874      0.10%    100.00% |           0      0.00%    100.00% |           0      0.00%    100.00%
system.ruby.L1Cache_Controller.M.Store::total     35719420                      
system.ruby.L1Cache_Controller.M.Inv     |         931      4.08%      4.08% |           0      0.00%      4.08% |        5493     24.09%     28.18% |        5379     23.59%     51.77% |        5468     23.98%     75.75% |        5500     24.12%     99.88% |           0      0.00%     99.88% |          28      0.12%    100.00%
system.ruby.L1Cache_Controller.M.Inv::total        22799                      
system.ruby.L1Cache_Controller.M.L1_Replacement |      313656     61.64%     61.64% |           0      0.00%     61.64% |       12287      2.41%     64.05% |       12507      2.46%     66.51% |       12522      2.46%     68.97% |       12526      2.46%     71.43% |           0      0.00%     71.43% |      145380     28.57%    100.00%
system.ruby.L1Cache_Controller.M.L1_Replacement::total       508878                      
system.ruby.L1Cache_Controller.M.Fwd_GETX |           1      0.01%      0.01% |           0      0.00%      0.01% |        2212     25.59%     25.60% |        2196     25.40%     51.00% |        2184     25.26%     76.26% |        2052     23.74%    100.00% |           0      0.00%    100.00% |           0      0.00%    100.00%
system.ruby.L1Cache_Controller.M.Fwd_GETX::total         8645                      
system.ruby.L1Cache_Controller.M.Fwd_GETS |           2      0.27%      0.27% |           0      0.00%      0.27% |         198     26.40%     26.67% |         185     24.67%     51.33% |         187     24.93%     76.27% |         170     22.67%     98.93% |           0      0.00%     98.93% |           8      1.07%    100.00%
system.ruby.L1Cache_Controller.M.Fwd_GETS::total          750                      
system.ruby.L1Cache_Controller.IS.L1_Replacement |           0      0.00%      0.00% |           0      0.00%      0.00% |           0      0.00%      0.00% |           0      0.00%      0.00% |           0      0.00%      0.00% |           1      0.00%      0.00% |           0      0.00%      0.00% |     1928255    100.00%    100.00%
system.ruby.L1Cache_Controller.IS.L1_Replacement::total      1928256                      
system.ruby.L1Cache_Controller.IS.Data_Exclusive |      240842     49.61%     49.61% |           0      0.00%     49.61% |       24786      5.11%     54.71% |       24861      5.12%     59.83% |       25008      5.15%     64.98% |       24608      5.07%     70.05% |           0      0.00%     70.05% |      145414     29.95%    100.00%
system.ruby.L1Cache_Controller.IS.Data_Exclusive::total       485519                      
system.ruby.L1Cache_Controller.IS.DataS_fromL1 |           8      0.13%      0.13% |           0      0.00%      0.13% |        1495     23.78%     23.91% |        1572     25.00%     48.91% |        1562     24.84%     73.76% |        1648     26.21%     99.97% |           0      0.00%     99.97% |           2      0.03%    100.00%
system.ruby.L1Cache_Controller.IS.DataS_fromL1::total         6287                      
system.ruby.L1Cache_Controller.IS.Data_all_Acks |      465632     95.59%     95.59% |           0      0.00%     95.59% |        5371      1.10%     96.70% |        5316      1.09%     97.79% |        5251      1.08%     98.87% |        5522      1.13%    100.00% |           0      0.00%    100.00% |           0      0.00%    100.00%
system.ruby.L1Cache_Controller.IS.Data_all_Acks::total       487092                      
system.ruby.L1Cache_Controller.IM.L1_Replacement |           0      0.00%      0.00% |           0      0.00%      0.00% |           0      0.00%      0.00% |           0      0.00%      0.00% |           0      0.00%      0.00% |           0      0.00%      0.00% |           0      0.00%      0.00% |     2039566    100.00%    100.00%
system.ruby.L1Cache_Controller.IM.L1_Replacement::total      2039566                      
system.ruby.L1Cache_Controller.IM.Data   |           0      0.00%      0.00% |           0      0.00%      0.00% |           2     40.00%     40.00% |           1     20.00%     60.00% |           0      0.00%     60.00% |           2     40.00%    100.00% |           0      0.00%    100.00% |           0      0.00%    100.00%
system.ruby.L1Cache_Controller.IM.Data::total            5                      
system.ruby.L1Cache_Controller.IM.Data_all_Acks |      311976     66.65%     66.65% |           0      0.00%     66.65% |        2597      0.55%     67.20% |        2629      0.56%     67.77% |        2704      0.58%     68.34% |        2768      0.59%     68.93% |           0      0.00%     68.93% |      145416     31.07%    100.00%
system.ruby.L1Cache_Controller.IM.Data_all_Acks::total       468090                      
system.ruby.L1Cache_Controller.SM.Inv    |           0      0.00%      0.00% |           0      0.00%      0.00% |         104     23.21%     23.21% |         117     26.12%     49.33% |         101     22.54%     71.88% |         126     28.12%    100.00% |           0      0.00%    100.00% |           0      0.00%    100.00%
system.ruby.L1Cache_Controller.SM.Inv::total          448                      
system.ruby.L1Cache_Controller.SM.Ack    |           0      0.00%      0.00% |           0      0.00%      0.00% |        1955     25.57%     25.57% |        1934     25.30%     50.87% |        1860     24.33%     75.20% |        1896     24.80%    100.00% |           0      0.00%    100.00% |           0      0.00%    100.00%
system.ruby.L1Cache_Controller.SM.Ack::total         7645                      
system.ruby.L1Cache_Controller.SM.Ack_all |           0      0.00%      0.00% |           0      0.00%      0.00% |        1957     25.58%     25.58% |        1935     25.29%     50.88% |        1860     24.31%     75.19% |        1898     24.81%    100.00% |           0      0.00%    100.00% |           0      0.00%    100.00%
system.ruby.L1Cache_Controller.SM.Ack_all::total         7650                      
system.ruby.L1Cache_Controller.M_I.Inv   |           0      0.00%      0.00% |           0      0.00%      0.00% |          18     21.69%     21.69% |          21     25.30%     46.99% |          17     20.48%     67.47% |          27     32.53%    100.00% |           0      0.00%    100.00% |           0      0.00%    100.00%
system.ruby.L1Cache_Controller.M_I.Inv::total           83                      
system.ruby.L1Cache_Controller.M_I.WB_Ack |      550910     60.22%     60.22% |           0      0.00%     60.22% |       18124      1.98%     62.20% |       18333      2.00%     64.20% |       18369      2.01%     66.21% |       18326      2.00%     68.21% |           0      0.00%     68.21% |      290794     31.79%    100.00%
system.ruby.L1Cache_Controller.M_I.WB_Ack::total       914856                      
system.ruby.L1Cache_Controller.SINK_WB_ACK.WB_Ack |           0      0.00%      0.00% |           0      0.00%      0.00% |          18     21.69%     21.69% |          21     25.30%     46.99% |          17     20.48%     67.47% |          27     32.53%    100.00% |           0      0.00%    100.00% |           0      0.00%    100.00%
system.ruby.L1Cache_Controller.SINK_WB_ACK.WB_Ack::total           83                      
system.ruby.L2Cache_Controller.L1_GET_INSTR       465611      0.00%      0.00%
system.ruby.L2Cache_Controller.L1_GETS         513392      0.00%      0.00%
system.ruby.L2Cache_Controller.L1_GETX         468380      0.00%      0.00%
system.ruby.L2Cache_Controller.L1_UPGRADE         8039      0.00%      0.00%
system.ruby.L2Cache_Controller.L1_PUTX         914856      0.00%      0.00%
system.ruby.L2Cache_Controller.L1_PUTX_old          116      0.00%      0.00%
system.ruby.L2Cache_Controller.L2_Replacement       439214      0.00%      0.00%
system.ruby.L2Cache_Controller.L2_Replacement_clean       336048      0.00%      0.00%
system.ruby.L2Cache_Controller.Mem_Data        776603      0.00%      0.00%
system.ruby.L2Cache_Controller.Mem_Ack         775262      0.00%      0.00%
system.ruby.L2Cache_Controller.WB_Data          23632      0.00%      0.00%
system.ruby.L2Cache_Controller.WB_Data_clean         5537      0.00%      0.00%
system.ruby.L2Cache_Controller.Ack              10764      0.00%      0.00%
system.ruby.L2Cache_Controller.Ack_all          20714      0.00%      0.00%
system.ruby.L2Cache_Controller.Unblock           6287      0.00%      0.00%
system.ruby.L2Cache_Controller.Exclusive_Unblock       961259      0.00%      0.00%
system.ruby.L2Cache_Controller.NP.L1_GET_INSTR         3950      0.00%      0.00%
system.ruby.L2Cache_Controller.NP.L1_GETS       381144      0.00%      0.00%
system.ruby.L2Cache_Controller.NP.L1_GETX       391509      0.00%      0.00%
system.ruby.L2Cache_Controller.NP.L1_PUTX_old           33      0.00%      0.00%
system.ruby.L2Cache_Controller.SS.L1_GET_INSTR       461630      0.00%      0.00%
system.ruby.L2Cache_Controller.SS.L1_GETS         1751      0.00%      0.00%
system.ruby.L2Cache_Controller.SS.L1_GETX            5      0.00%      0.00%
system.ruby.L2Cache_Controller.SS.L1_UPGRADE         7645      0.00%      0.00%
system.ruby.L2Cache_Controller.SS.L2_Replacement           10      0.00%      0.00%
system.ruby.L2Cache_Controller.SS.L2_Replacement_clean        12116      0.00%      0.00%
system.ruby.L2Cache_Controller.M.L1_GETS       113695      0.00%      0.00%
system.ruby.L2Cache_Controller.M.L1_GETX        67936      0.00%      0.00%
system.ruby.L2Cache_Controller.M.L2_Replacement       438896      0.00%      0.00%
system.ruby.L2Cache_Controller.M.L2_Replacement_clean       292770      0.00%      0.00%
system.ruby.L2Cache_Controller.MT.L1_GETS         6287      0.00%      0.00%
system.ruby.L2Cache_Controller.MT.L1_GETX         8645      0.00%      0.00%
system.ruby.L2Cache_Controller.MT.L1_PUTX       914856      0.00%      0.00%
system.ruby.L2Cache_Controller.MT.L2_Replacement          308      0.00%      0.00%
system.ruby.L2Cache_Controller.MT.L2_Replacement_clean        31162      0.00%      0.00%
system.ruby.L2Cache_Controller.M_I.L1_GETS           17      0.00%      0.00%
system.ruby.L2Cache_Controller.M_I.L1_GETX            1      0.00%      0.00%
system.ruby.L2Cache_Controller.M_I.L1_PUTX_old           50      0.00%      0.00%
system.ruby.L2Cache_Controller.M_I.Mem_Ack       775262      0.00%      0.00%
system.ruby.L2Cache_Controller.MT_I.WB_Data          212      0.00%      0.00%
system.ruby.L2Cache_Controller.MT_I.Ack_all           96      0.00%      0.00%
system.ruby.L2Cache_Controller.MCT_I.L1_PUTX_old           33      0.00%      0.00%
system.ruby.L2Cache_Controller.MCT_I.WB_Data        22670      0.00%      0.00%
system.ruby.L2Cache_Controller.MCT_I.Ack_all         8492      0.00%      0.00%
system.ruby.L2Cache_Controller.I_I.Ack          10754      0.00%      0.00%
system.ruby.L2Cache_Controller.I_I.Ack_all        12116      0.00%      0.00%
system.ruby.L2Cache_Controller.S_I.Ack             10      0.00%      0.00%
system.ruby.L2Cache_Controller.S_I.Ack_all           10      0.00%      0.00%
system.ruby.L2Cache_Controller.ISS.L1_GETS         9320      0.00%      0.00%
system.ruby.L2Cache_Controller.ISS.Mem_Data       371824      0.00%      0.00%
system.ruby.L2Cache_Controller.IS.L1_GET_INSTR           31      0.00%      0.00%
system.ruby.L2Cache_Controller.IS.L1_GETS         1090      0.00%      0.00%
system.ruby.L2Cache_Controller.IS.Mem_Data        13270      0.00%      0.00%
system.ruby.L2Cache_Controller.IM.L1_GETX          157      0.00%      0.00%
system.ruby.L2Cache_Controller.IM.Mem_Data       391509      0.00%      0.00%
system.ruby.L2Cache_Controller.SS_MB.L1_GETS           11      0.00%      0.00%
system.ruby.L2Cache_Controller.SS_MB.L1_GETX          102      0.00%      0.00%
system.ruby.L2Cache_Controller.SS_MB.L1_UPGRADE          394      0.00%      0.00%
system.ruby.L2Cache_Controller.SS_MB.Exclusive_Unblock         7650      0.00%      0.00%
system.ruby.L2Cache_Controller.MT_MB.L1_GETS           52      0.00%      0.00%
system.ruby.L2Cache_Controller.MT_MB.L1_GETX           25      0.00%      0.00%
system.ruby.L2Cache_Controller.MT_MB.Exclusive_Unblock       953609      0.00%      0.00%
system.ruby.L2Cache_Controller.MT_IIB.L1_GETS           23      0.00%      0.00%
system.ruby.L2Cache_Controller.MT_IIB.WB_Data           18      0.00%      0.00%
system.ruby.L2Cache_Controller.MT_IIB.WB_Data_clean          131      0.00%      0.00%
system.ruby.L2Cache_Controller.MT_IIB.Unblock         6138      0.00%      0.00%
system.ruby.L2Cache_Controller.MT_IB.L1_GETS            2      0.00%      0.00%
system.ruby.L2Cache_Controller.MT_IB.WB_Data          732      0.00%      0.00%
system.ruby.L2Cache_Controller.MT_IB.WB_Data_clean         5406      0.00%      0.00%
system.ruby.L2Cache_Controller.MT_SB.Unblock          149      0.00%      0.00%

---------- End Simulation Statistics   ----------
