
---------- Begin Simulation Statistics ----------
sim_seconds                                  0.352785                       # Number of seconds simulated
sim_ticks                                352784641500                       # Number of ticks simulated
final_tick                               352999712000                       # Number of ticks from beginning of simulation (restored from checkpoints and never reset)
sim_freq                                 1000000000000                       # Frequency of simulated ticks
host_inst_rate                                 212393                       # Simulator instruction rate (inst/s)
host_op_rate                                   482338                       # Simulator op (including micro ops) rate (op/s)
host_tick_rate                              374458134                       # Simulator tick rate (ticks/s)
host_mem_usage                                1285244                       # Number of bytes of host memory used
host_seconds                                   942.12                       # Real time elapsed on the host
sim_insts                                   200100002                       # Number of instructions simulated
sim_ops                                     454420901                       # Number of ops (including micro ops) simulated
system.voltage_domain.voltage                       1                       # Voltage in Volts
system.clk_domain.clock                          1000                       # Clock period in ticks
system.mem_ctrls.bytes_read::ruby.dir_cntrl0      4104320                       # Number of bytes read from this memory
system.mem_ctrls.bytes_read::total            4104320                       # Number of bytes read from this memory
system.mem_ctrls.bytes_written::ruby.dir_cntrl0      3850240                       # Number of bytes written to this memory
system.mem_ctrls.bytes_written::total         3850240                       # Number of bytes written to this memory
system.mem_ctrls.num_reads::ruby.dir_cntrl0        32065                       # Number of read requests responded to by this memory
system.mem_ctrls.num_reads::total               32065                       # Number of read requests responded to by this memory
system.mem_ctrls.num_writes::ruby.dir_cntrl0        30080                       # Number of write requests responded to by this memory
system.mem_ctrls.num_writes::total              30080                       # Number of write requests responded to by this memory
system.mem_ctrls.bw_read::ruby.dir_cntrl0     11634067                       # Total read bandwidth from this memory (bytes/s)
system.mem_ctrls.bw_read::total              11634067                       # Total read bandwidth from this memory (bytes/s)
system.mem_ctrls.bw_write::ruby.dir_cntrl0     10913854                       # Write bandwidth from this memory (bytes/s)
system.mem_ctrls.bw_write::total             10913854                       # Write bandwidth from this memory (bytes/s)
system.mem_ctrls.bw_total::ruby.dir_cntrl0     22547920                       # Total bandwidth to/from this memory (bytes/s)
system.mem_ctrls.bw_total::total             22547920                       # Total bandwidth to/from this memory (bytes/s)
system.mem_ctrls.readReqs                       32065                       # Number of read requests accepted
system.mem_ctrls.writeReqs                      30080                       # Number of write requests accepted
system.mem_ctrls.readBursts                     64130                       # Number of DRAM read bursts, including those serviced by the write queue
system.mem_ctrls.writeBursts                    60160                       # Number of DRAM write bursts, including those merged in the write queue
system.mem_ctrls.bytesReadDRAM                4104320                       # Total number of bytes read from DRAM
system.mem_ctrls.bytesReadWrQ                       0                       # Total number of bytes read from write queue
system.mem_ctrls.bytesWritten                 3848896                       # Total number of bytes written to DRAM
system.mem_ctrls.bytesReadSys                 4104320                       # Total read bytes from the system interface side
system.mem_ctrls.bytesWrittenSys              3850240                       # Total written bytes from the system interface side
system.mem_ctrls.servicedByWrQ                      0                       # Number of DRAM read bursts serviced by the write queue
system.mem_ctrls.mergedWrBursts                     0                       # Number of DRAM write bursts merged with an existing one
system.mem_ctrls.neitherReadNorWriteReqs            0                       # Number of requests that are neither read nor write
system.mem_ctrls.perBankRdBursts::0              4036                       # Per bank write bursts
system.mem_ctrls.perBankRdBursts::1              4116                       # Per bank write bursts
system.mem_ctrls.perBankRdBursts::2              4024                       # Per bank write bursts
system.mem_ctrls.perBankRdBursts::3              3972                       # Per bank write bursts
system.mem_ctrls.perBankRdBursts::4              3978                       # Per bank write bursts
system.mem_ctrls.perBankRdBursts::5              3968                       # Per bank write bursts
system.mem_ctrls.perBankRdBursts::6              3968                       # Per bank write bursts
system.mem_ctrls.perBankRdBursts::7              3980                       # Per bank write bursts
system.mem_ctrls.perBankRdBursts::8              3972                       # Per bank write bursts
system.mem_ctrls.perBankRdBursts::9              3968                       # Per bank write bursts
system.mem_ctrls.perBankRdBursts::10             4096                       # Per bank write bursts
system.mem_ctrls.perBankRdBursts::11             4102                       # Per bank write bursts
system.mem_ctrls.perBankRdBursts::12             4056                       # Per bank write bursts
system.mem_ctrls.perBankRdBursts::13             3988                       # Per bank write bursts
system.mem_ctrls.perBankRdBursts::14             3994                       # Per bank write bursts
system.mem_ctrls.perBankRdBursts::15             3912                       # Per bank write bursts
system.mem_ctrls.perBankWrBursts::0              3762                       # Per bank write bursts
system.mem_ctrls.perBankWrBursts::1              3748                       # Per bank write bursts
system.mem_ctrls.perBankWrBursts::2              3786                       # Per bank write bursts
system.mem_ctrls.perBankWrBursts::3              3712                       # Per bank write bursts
system.mem_ctrls.perBankWrBursts::4              3728                       # Per bank write bursts
system.mem_ctrls.perBankWrBursts::5              3720                       # Per bank write bursts
system.mem_ctrls.perBankWrBursts::6              3712                       # Per bank write bursts
system.mem_ctrls.perBankWrBursts::7              3712                       # Per bank write bursts
system.mem_ctrls.perBankWrBursts::8              3714                       # Per bank write bursts
system.mem_ctrls.perBankWrBursts::9              3714                       # Per bank write bursts
system.mem_ctrls.perBankWrBursts::10             3833                       # Per bank write bursts
system.mem_ctrls.perBankWrBursts::11             3784                       # Per bank write bursts
system.mem_ctrls.perBankWrBursts::12             3820                       # Per bank write bursts
system.mem_ctrls.perBankWrBursts::13             3878                       # Per bank write bursts
system.mem_ctrls.perBankWrBursts::14             3784                       # Per bank write bursts
system.mem_ctrls.perBankWrBursts::15             3732                       # Per bank write bursts
system.mem_ctrls.numRdRetry                         0                       # Number of times read queue was full causing retry
system.mem_ctrls.numWrRetry                         0                       # Number of times write queue was full causing retry
system.mem_ctrls.totGap                  352871305500                       # Total gap between requests
system.mem_ctrls.readPktSize::0                     0                       # Read request sizes (log2)
system.mem_ctrls.readPktSize::1                     0                       # Read request sizes (log2)
system.mem_ctrls.readPktSize::2                     0                       # Read request sizes (log2)
system.mem_ctrls.readPktSize::3                     0                       # Read request sizes (log2)
system.mem_ctrls.readPktSize::4                     0                       # Read request sizes (log2)
system.mem_ctrls.readPktSize::5                     0                       # Read request sizes (log2)
system.mem_ctrls.readPktSize::6                 64130                       # Read request sizes (log2)
system.mem_ctrls.writePktSize::0                    0                       # Write request sizes (log2)
system.mem_ctrls.writePktSize::1                    0                       # Write request sizes (log2)
system.mem_ctrls.writePktSize::2                    0                       # Write request sizes (log2)
system.mem_ctrls.writePktSize::3                    0                       # Write request sizes (log2)
system.mem_ctrls.writePktSize::4                    0                       # Write request sizes (log2)
system.mem_ctrls.writePktSize::5                    0                       # Write request sizes (log2)
system.mem_ctrls.writePktSize::6                60160                       # Write request sizes (log2)
system.mem_ctrls.rdQLenPdf::0                   32065                       # What read queue length does an incoming req see
system.mem_ctrls.rdQLenPdf::1                   32065                       # What read queue length does an incoming req see
system.mem_ctrls.rdQLenPdf::2                       0                       # What read queue length does an incoming req see
system.mem_ctrls.rdQLenPdf::3                       0                       # What read queue length does an incoming req see
system.mem_ctrls.rdQLenPdf::4                       0                       # What read queue length does an incoming req see
system.mem_ctrls.rdQLenPdf::5                       0                       # What read queue length does an incoming req see
system.mem_ctrls.rdQLenPdf::6                       0                       # What read queue length does an incoming req see
system.mem_ctrls.rdQLenPdf::7                       0                       # What read queue length does an incoming req see
system.mem_ctrls.rdQLenPdf::8                       0                       # What read queue length does an incoming req see
system.mem_ctrls.rdQLenPdf::9                       0                       # What read queue length does an incoming req see
system.mem_ctrls.rdQLenPdf::10                      0                       # What read queue length does an incoming req see
system.mem_ctrls.rdQLenPdf::11                      0                       # What read queue length does an incoming req see
system.mem_ctrls.rdQLenPdf::12                      0                       # What read queue length does an incoming req see
system.mem_ctrls.rdQLenPdf::13                      0                       # What read queue length does an incoming req see
system.mem_ctrls.rdQLenPdf::14                      0                       # What read queue length does an incoming req see
system.mem_ctrls.rdQLenPdf::15                      0                       # What read queue length does an incoming req see
system.mem_ctrls.rdQLenPdf::16                      0                       # What read queue length does an incoming req see
system.mem_ctrls.rdQLenPdf::17                      0                       # What read queue length does an incoming req see
system.mem_ctrls.rdQLenPdf::18                      0                       # What read queue length does an incoming req see
system.mem_ctrls.rdQLenPdf::19                      0                       # What read queue length does an incoming req see
system.mem_ctrls.rdQLenPdf::20                      0                       # What read queue length does an incoming req see
system.mem_ctrls.rdQLenPdf::21                      0                       # What read queue length does an incoming req see
system.mem_ctrls.rdQLenPdf::22                      0                       # What read queue length does an incoming req see
system.mem_ctrls.rdQLenPdf::23                      0                       # What read queue length does an incoming req see
system.mem_ctrls.rdQLenPdf::24                      0                       # What read queue length does an incoming req see
system.mem_ctrls.rdQLenPdf::25                      0                       # What read queue length does an incoming req see
system.mem_ctrls.rdQLenPdf::26                      0                       # What read queue length does an incoming req see
system.mem_ctrls.rdQLenPdf::27                      0                       # What read queue length does an incoming req see
system.mem_ctrls.rdQLenPdf::28                      0                       # What read queue length does an incoming req see
system.mem_ctrls.rdQLenPdf::29                      0                       # What read queue length does an incoming req see
system.mem_ctrls.rdQLenPdf::30                      0                       # What read queue length does an incoming req see
system.mem_ctrls.rdQLenPdf::31                      0                       # What read queue length does an incoming req see
system.mem_ctrls.wrQLenPdf::0                       1                       # What write queue length does an incoming req see
system.mem_ctrls.wrQLenPdf::1                       1                       # What write queue length does an incoming req see
system.mem_ctrls.wrQLenPdf::2                       1                       # What write queue length does an incoming req see
system.mem_ctrls.wrQLenPdf::3                       1                       # What write queue length does an incoming req see
system.mem_ctrls.wrQLenPdf::4                       1                       # What write queue length does an incoming req see
system.mem_ctrls.wrQLenPdf::5                       1                       # What write queue length does an incoming req see
system.mem_ctrls.wrQLenPdf::6                       1                       # What write queue length does an incoming req see
system.mem_ctrls.wrQLenPdf::7                       1                       # What write queue length does an incoming req see
system.mem_ctrls.wrQLenPdf::8                       1                       # What write queue length does an incoming req see
system.mem_ctrls.wrQLenPdf::9                       1                       # What write queue length does an incoming req see
system.mem_ctrls.wrQLenPdf::10                      1                       # What write queue length does an incoming req see
system.mem_ctrls.wrQLenPdf::11                      1                       # What write queue length does an incoming req see
system.mem_ctrls.wrQLenPdf::12                      1                       # What write queue length does an incoming req see
system.mem_ctrls.wrQLenPdf::13                      1                       # What write queue length does an incoming req see
system.mem_ctrls.wrQLenPdf::14                      1                       # What write queue length does an incoming req see
system.mem_ctrls.wrQLenPdf::15                     11                       # What write queue length does an incoming req see
system.mem_ctrls.wrQLenPdf::16                     37                       # What write queue length does an incoming req see
system.mem_ctrls.wrQLenPdf::17                   3722                       # What write queue length does an incoming req see
system.mem_ctrls.wrQLenPdf::18                   3763                       # What write queue length does an incoming req see
system.mem_ctrls.wrQLenPdf::19                   3754                       # What write queue length does an incoming req see
system.mem_ctrls.wrQLenPdf::20                   3754                       # What write queue length does an incoming req see
system.mem_ctrls.wrQLenPdf::21                   3753                       # What write queue length does an incoming req see
system.mem_ctrls.wrQLenPdf::22                   3753                       # What write queue length does an incoming req see
system.mem_ctrls.wrQLenPdf::23                   3753                       # What write queue length does an incoming req see
system.mem_ctrls.wrQLenPdf::24                   3753                       # What write queue length does an incoming req see
system.mem_ctrls.wrQLenPdf::25                   3753                       # What write queue length does an incoming req see
system.mem_ctrls.wrQLenPdf::26                   3753                       # What write queue length does an incoming req see
system.mem_ctrls.wrQLenPdf::27                   3753                       # What write queue length does an incoming req see
system.mem_ctrls.wrQLenPdf::28                   3753                       # What write queue length does an incoming req see
system.mem_ctrls.wrQLenPdf::29                   3753                       # What write queue length does an incoming req see
system.mem_ctrls.wrQLenPdf::30                   3753                       # What write queue length does an incoming req see
system.mem_ctrls.wrQLenPdf::31                   3753                       # What write queue length does an incoming req see
system.mem_ctrls.wrQLenPdf::32                   3753                       # What write queue length does an incoming req see
system.mem_ctrls.wrQLenPdf::33                     68                       # What write queue length does an incoming req see
system.mem_ctrls.wrQLenPdf::34                      0                       # What write queue length does an incoming req see
system.mem_ctrls.wrQLenPdf::35                      0                       # What write queue length does an incoming req see
system.mem_ctrls.wrQLenPdf::36                      0                       # What write queue length does an incoming req see
system.mem_ctrls.wrQLenPdf::37                      0                       # What write queue length does an incoming req see
system.mem_ctrls.wrQLenPdf::38                      0                       # What write queue length does an incoming req see
system.mem_ctrls.wrQLenPdf::39                      0                       # What write queue length does an incoming req see
system.mem_ctrls.wrQLenPdf::40                      0                       # What write queue length does an incoming req see
system.mem_ctrls.wrQLenPdf::41                      0                       # What write queue length does an incoming req see
system.mem_ctrls.wrQLenPdf::42                      0                       # What write queue length does an incoming req see
system.mem_ctrls.wrQLenPdf::43                      0                       # What write queue length does an incoming req see
system.mem_ctrls.wrQLenPdf::44                      0                       # What write queue length does an incoming req see
system.mem_ctrls.wrQLenPdf::45                      0                       # What write queue length does an incoming req see
system.mem_ctrls.wrQLenPdf::46                      0                       # What write queue length does an incoming req see
system.mem_ctrls.wrQLenPdf::47                      0                       # What write queue length does an incoming req see
system.mem_ctrls.wrQLenPdf::48                      0                       # What write queue length does an incoming req see
system.mem_ctrls.wrQLenPdf::49                      0                       # What write queue length does an incoming req see
system.mem_ctrls.wrQLenPdf::50                      0                       # What write queue length does an incoming req see
system.mem_ctrls.wrQLenPdf::51                      0                       # What write queue length does an incoming req see
system.mem_ctrls.wrQLenPdf::52                      0                       # What write queue length does an incoming req see
system.mem_ctrls.wrQLenPdf::53                      0                       # What write queue length does an incoming req see
system.mem_ctrls.wrQLenPdf::54                      0                       # What write queue length does an incoming req see
system.mem_ctrls.wrQLenPdf::55                      0                       # What write queue length does an incoming req see
system.mem_ctrls.wrQLenPdf::56                      0                       # What write queue length does an incoming req see
system.mem_ctrls.wrQLenPdf::57                      0                       # What write queue length does an incoming req see
system.mem_ctrls.wrQLenPdf::58                      0                       # What write queue length does an incoming req see
system.mem_ctrls.wrQLenPdf::59                      0                       # What write queue length does an incoming req see
system.mem_ctrls.wrQLenPdf::60                      0                       # What write queue length does an incoming req see
system.mem_ctrls.wrQLenPdf::61                      0                       # What write queue length does an incoming req see
system.mem_ctrls.wrQLenPdf::62                      0                       # What write queue length does an incoming req see
system.mem_ctrls.wrQLenPdf::63                      0                       # What write queue length does an incoming req see
system.mem_ctrls.bytesPerActivate::samples        10576                       # Bytes accessed per row activation
system.mem_ctrls.bytesPerActivate::mean    752.006051                       # Bytes accessed per row activation
system.mem_ctrls.bytesPerActivate::gmean   583.758559                       # Bytes accessed per row activation
system.mem_ctrls.bytesPerActivate::stdev   370.240612                       # Bytes accessed per row activation
system.mem_ctrls.bytesPerActivate::0-127          279      2.64%      2.64% # Bytes accessed per row activation
system.mem_ctrls.bytesPerActivate::128-255         1852     17.51%     20.15% # Bytes accessed per row activation
system.mem_ctrls.bytesPerActivate::256-383          269      2.54%     22.69% # Bytes accessed per row activation
system.mem_ctrls.bytesPerActivate::384-511          460      4.35%     27.04% # Bytes accessed per row activation
system.mem_ctrls.bytesPerActivate::512-639          402      3.80%     30.84% # Bytes accessed per row activation
system.mem_ctrls.bytesPerActivate::640-767          410      3.88%     34.72% # Bytes accessed per row activation
system.mem_ctrls.bytesPerActivate::768-895          169      1.60%     36.32% # Bytes accessed per row activation
system.mem_ctrls.bytesPerActivate::896-1023          767      7.25%     43.57% # Bytes accessed per row activation
system.mem_ctrls.bytesPerActivate::1024-1151         5968     56.43%    100.00% # Bytes accessed per row activation
system.mem_ctrls.bytesPerActivate::total        10576                       # Bytes accessed per row activation
system.mem_ctrls.rdPerTurnAround::samples         3753                       # Reads before turning the bus around for writes
system.mem_ctrls.rdPerTurnAround::mean      17.395683                       # Reads before turning the bus around for writes
system.mem_ctrls.rdPerTurnAround::gmean     16.145778                       # Reads before turning the bus around for writes
system.mem_ctrls.rdPerTurnAround::stdev     62.346574                       # Reads before turning the bus around for writes
system.mem_ctrls.rdPerTurnAround::0-127          3746     99.81%     99.81% # Reads before turning the bus around for writes
system.mem_ctrls.rdPerTurnAround::128-255            6      0.16%     99.97% # Reads before turning the bus around for writes
system.mem_ctrls.rdPerTurnAround::3712-3839            1      0.03%    100.00% # Reads before turning the bus around for writes
system.mem_ctrls.rdPerTurnAround::total          3753                       # Reads before turning the bus around for writes
system.mem_ctrls.wrPerTurnAround::samples         3753                       # Writes before turning the bus around for reads
system.mem_ctrls.wrPerTurnAround::mean      16.024247                       # Writes before turning the bus around for reads
system.mem_ctrls.wrPerTurnAround::gmean     16.022308                       # Writes before turning the bus around for reads
system.mem_ctrls.wrPerTurnAround::stdev      0.263643                       # Writes before turning the bus around for reads
system.mem_ctrls.wrPerTurnAround::16             3721     99.15%     99.15% # Writes before turning the bus around for reads
system.mem_ctrls.wrPerTurnAround::18                5      0.13%     99.28% # Writes before turning the bus around for reads
system.mem_ctrls.wrPerTurnAround::19               27      0.72%    100.00% # Writes before turning the bus around for reads
system.mem_ctrls.wrPerTurnAround::total          3753                       # Writes before turning the bus around for reads
system.mem_ctrls.totQLat                   1580021750                       # Total ticks spent queuing
system.mem_ctrls.totMemAccLat              2782459250                       # Total ticks spent from burst creation until serviced by the DRAM
system.mem_ctrls.totBusLat                  320650000                       # Total ticks spent in databus transfers
system.mem_ctrls.avgQLat                     24637.79                       # Average queueing delay per DRAM burst
system.mem_ctrls.avgBusLat                    5000.00                       # Average bus latency per DRAM burst
system.mem_ctrls.avgMemAccLat                43387.79                       # Average memory access latency per DRAM burst
system.mem_ctrls.avgRdBW                        11.63                       # Average DRAM read bandwidth in MiByte/s
system.mem_ctrls.avgWrBW                        10.91                       # Average achieved write bandwidth in MiByte/s
system.mem_ctrls.avgRdBWSys                     11.63                       # Average system read bandwidth in MiByte/s
system.mem_ctrls.avgWrBWSys                     10.91                       # Average system write bandwidth in MiByte/s
system.mem_ctrls.peakBW                      12800.00                       # Theoretical peak bandwidth in MiByte/s
system.mem_ctrls.busUtil                         0.18                       # Data bus utilization in percentage
system.mem_ctrls.busUtilRead                     0.09                       # Data bus utilization in percentage for reads
system.mem_ctrls.busUtilWrite                    0.09                       # Data bus utilization in percentage for writes
system.mem_ctrls.avgRdQLen                       2.00                       # Average read queue length when enqueuing
system.mem_ctrls.avgWrQLen                       1.77                       # Average write queue length when enqueuing
system.mem_ctrls.readRowHits                    58166                       # Number of row buffer hits during reads
system.mem_ctrls.writeRowHits                   55527                       # Number of row buffer hits during writes
system.mem_ctrls.readRowHitRate                 90.70                       # Row buffer hit rate for reads
system.mem_ctrls.writeRowHitRate                92.30                       # Row buffer hit rate for writes
system.mem_ctrls.avgGap                    5678193.02                       # Average gap between requests
system.mem_ctrls.pageHitRate                    91.47                       # Row buffer hit rate, read and write combined
system.mem_ctrls_0.actEnergy                 41020560                       # Energy for activate commands per rank (pJ)
system.mem_ctrls_0.preEnergy                 22382250                       # Energy for precharge commands per rank (pJ)
system.mem_ctrls_0.readEnergy               255481200                       # Energy for read commands per rank (pJ)
system.mem_ctrls_0.writeEnergy              193622400                       # Energy for write commands per rank (pJ)
system.mem_ctrls_0.refreshEnergy          23056076160                       # Energy for refresh commands per rank (pJ)
system.mem_ctrls_0.actBackEnergy          11304803160                       # Energy for active background per rank (pJ)
system.mem_ctrls_0.preBackEnergy         201882111750                       # Energy for precharge background per rank (pJ)
system.mem_ctrls_0.totalEnergy           236755497480                       # Total energy per rank (pJ)
system.mem_ctrls_0.averagePower            670.699875                       # Core power per rank (mW)
system.mem_ctrls_0.memoryStateTime::IDLE 335707490750                       # Time in different power states
system.mem_ctrls_0.memoryStateTime::REF   11780340000                       # Time in different power states
system.mem_ctrls_0.memoryStateTime::PRE_PDN            0                       # Time in different power states
system.mem_ctrls_0.memoryStateTime::ACT    5299370500                       # Time in different power states
system.mem_ctrls_0.memoryStateTime::ACT_PDN            0                       # Time in different power states
system.mem_ctrls_1.actEnergy                 40438440                       # Energy for activate commands per rank (pJ)
system.mem_ctrls_1.preEnergy                 22064625                       # Energy for precharge commands per rank (pJ)
system.mem_ctrls_1.readEnergy               253796400                       # Energy for read commands per rank (pJ)
system.mem_ctrls_1.writeEnergy              196078320                       # Energy for write commands per rank (pJ)
system.mem_ctrls_1.refreshEnergy          23056076160                       # Energy for refresh commands per rank (pJ)
system.mem_ctrls_1.actBackEnergy          10944693405                       # Energy for active background per rank (pJ)
system.mem_ctrls_1.preBackEnergy         202198005750                       # Energy for precharge background per rank (pJ)
system.mem_ctrls_1.totalEnergy           236711153100                       # Total energy per rank (pJ)
system.mem_ctrls_1.averagePower            670.574227                       # Core power per rank (mW)
system.mem_ctrls_1.memoryStateTime::IDLE 336191305750                       # Time in different power states
system.mem_ctrls_1.memoryStateTime::REF   11780340000                       # Time in different power states
system.mem_ctrls_1.memoryStateTime::PRE_PDN            0                       # Time in different power states
system.mem_ctrls_1.memoryStateTime::ACT    4815569250                       # Time in different power states
system.mem_ctrls_1.memoryStateTime::ACT_PDN            0                       # Time in different power states
system.ruby_clk_domain.clock                      500                       # Clock period in ticks
system.ruby.phys_mem.bytes_read::switch_cpus0.inst   2059772072                       # Number of bytes read from this memory
system.ruby.phys_mem.bytes_read::switch_cpus0.data    281885875                       # Number of bytes read from this memory
system.ruby.phys_mem.bytes_read::total     2341657947                       # Number of bytes read from this memory
system.ruby.phys_mem.bytes_inst_read::switch_cpus0.inst   2059772072                       # Number of instructions bytes read from this memory
system.ruby.phys_mem.bytes_inst_read::total   2059772072                       # Number of instructions bytes read from this memory
system.ruby.phys_mem.bytes_written::switch_cpus0.data    314678858                       # Number of bytes written to this memory
system.ruby.phys_mem.bytes_written::total    314678858                       # Number of bytes written to this memory
system.ruby.phys_mem.num_reads::switch_cpus0.inst    257471509                       # Number of read requests responded to by this memory
system.ruby.phys_mem.num_reads::switch_cpus0.data     45862350                       # Number of read requests responded to by this memory
system.ruby.phys_mem.num_reads::total       303333859                       # Number of read requests responded to by this memory
system.ruby.phys_mem.num_writes::switch_cpus0.data     46835208                       # Number of write requests responded to by this memory
system.ruby.phys_mem.num_writes::total       46835208                       # Number of write requests responded to by this memory
system.ruby.phys_mem.bw_read::switch_cpus0.inst   5838610386                       # Total read bandwidth from this memory (bytes/s)
system.ruby.phys_mem.bw_read::switch_cpus0.data    799031029                       # Total read bandwidth from this memory (bytes/s)
system.ruby.phys_mem.bw_read::total        6637641415                       # Total read bandwidth from this memory (bytes/s)
system.ruby.phys_mem.bw_inst_read::switch_cpus0.inst   5838610386                       # Instruction read bandwidth from this memory (bytes/s)
system.ruby.phys_mem.bw_inst_read::total   5838610386                       # Instruction read bandwidth from this memory (bytes/s)
system.ruby.phys_mem.bw_write::switch_cpus0.data    891985707                       # Write bandwidth from this memory (bytes/s)
system.ruby.phys_mem.bw_write::total        891985707                       # Write bandwidth from this memory (bytes/s)
system.ruby.phys_mem.bw_total::switch_cpus0.inst   5838610386                       # Total bandwidth to/from this memory (bytes/s)
system.ruby.phys_mem.bw_total::switch_cpus0.data   1691016736                       # Total bandwidth to/from this memory (bytes/s)
system.ruby.phys_mem.bw_total::total       7529627122                       # Total bandwidth to/from this memory (bytes/s)
system.cpu_voltage_domain.voltage                   1                       # Voltage in Volts
system.cpu_clk_domain.clock                       500                       # Clock period in ticks
system.cpu0.apic_clk_domain.clock                8000                       # Clock period in ticks
system.cpu0.workload.num_syscalls                7490                       # Number of system calls
system.cpu0.numCycles                               0                       # number of cpu cycles simulated
system.cpu0.numWorkItemsStarted                     0                       # number of work items this cpu started
system.cpu0.numWorkItemsCompleted                   0                       # number of work items this cpu completed
system.cpu0.committedInsts                          0                       # Number of instructions committed
system.cpu0.committedOps                            0                       # Number of ops (including micro ops) committed
system.cpu0.num_int_alu_accesses                    0                       # Number of integer alu accesses
system.cpu0.num_fp_alu_accesses                     0                       # Number of float alu accesses
system.cpu0.num_func_calls                          0                       # number of times a function call or return occured
system.cpu0.num_conditional_control_insts            0                       # number of instructions that are conditional controls
system.cpu0.num_int_insts                           0                       # number of integer instructions
system.cpu0.num_fp_insts                            0                       # number of float instructions
system.cpu0.num_int_register_reads                  0                       # number of times the integer registers were read
system.cpu0.num_int_register_writes                 0                       # number of times the integer registers were written
system.cpu0.num_fp_register_reads                   0                       # number of times the floating registers were read
system.cpu0.num_fp_register_writes                  0                       # number of times the floating registers were written
system.cpu0.num_mem_refs                            0                       # number of memory refs
system.cpu0.num_load_insts                          0                       # Number of load instructions
system.cpu0.num_store_insts                         0                       # Number of store instructions
system.cpu0.num_idle_cycles                         0                       # Number of idle cycles
system.cpu0.num_busy_cycles                         0                       # Number of busy cycles
system.cpu0.not_idle_fraction                       1                       # Percentage of non-idle cycles
system.cpu0.idle_fraction                           0                       # Percentage of idle cycles
system.cpu0.op_class::No_OpClass                    0                       # Class of executed instruction
system.cpu0.op_class::IntAlu                        0                       # Class of executed instruction
system.cpu0.op_class::IntMult                       0                       # Class of executed instruction
system.cpu0.op_class::IntDiv                        0                       # Class of executed instruction
system.cpu0.op_class::FloatAdd                      0                       # Class of executed instruction
system.cpu0.op_class::FloatCmp                      0                       # Class of executed instruction
system.cpu0.op_class::FloatCvt                      0                       # Class of executed instruction
system.cpu0.op_class::FloatMult                     0                       # Class of executed instruction
system.cpu0.op_class::FloatDiv                      0                       # Class of executed instruction
system.cpu0.op_class::FloatSqrt                     0                       # Class of executed instruction
system.cpu0.op_class::SimdAdd                       0                       # Class of executed instruction
system.cpu0.op_class::SimdAddAcc                    0                       # Class of executed instruction
system.cpu0.op_class::SimdAlu                       0                       # Class of executed instruction
system.cpu0.op_class::SimdCmp                       0                       # Class of executed instruction
system.cpu0.op_class::SimdCvt                       0                       # Class of executed instruction
system.cpu0.op_class::SimdMisc                      0                       # Class of executed instruction
system.cpu0.op_class::SimdMult                      0                       # Class of executed instruction
system.cpu0.op_class::SimdMultAcc                   0                       # Class of executed instruction
system.cpu0.op_class::SimdShift                     0                       # Class of executed instruction
system.cpu0.op_class::SimdShiftAcc                  0                       # Class of executed instruction
system.cpu0.op_class::SimdSqrt                      0                       # Class of executed instruction
system.cpu0.op_class::SimdFloatAdd                  0                       # Class of executed instruction
system.cpu0.op_class::SimdFloatAlu                  0                       # Class of executed instruction
system.cpu0.op_class::SimdFloatCmp                  0                       # Class of executed instruction
system.cpu0.op_class::SimdFloatCvt                  0                       # Class of executed instruction
system.cpu0.op_class::SimdFloatDiv                  0                       # Class of executed instruction
system.cpu0.op_class::SimdFloatMisc                 0                       # Class of executed instruction
system.cpu0.op_class::SimdFloatMult                 0                       # Class of executed instruction
system.cpu0.op_class::SimdFloatMultAcc              0                       # Class of executed instruction
system.cpu0.op_class::SimdFloatSqrt                 0                       # Class of executed instruction
system.cpu0.op_class::MemRead                       0                       # Class of executed instruction
system.cpu0.op_class::MemWrite                      0                       # Class of executed instruction
system.cpu0.op_class::IprAccess                     0                       # Class of executed instruction
system.cpu0.op_class::InstPrefetch                  0                       # Class of executed instruction
system.cpu0.op_class::total                         0                       # Class of executed instruction
system.cpu1.apic_clk_domain.clock                8000                       # Clock period in ticks
system.cpu1.numCycles                               0                       # number of cpu cycles simulated
system.cpu1.numWorkItemsStarted                     0                       # number of work items this cpu started
system.cpu1.numWorkItemsCompleted                   0                       # number of work items this cpu completed
system.cpu1.committedInsts                          0                       # Number of instructions committed
system.cpu1.committedOps                            0                       # Number of ops (including micro ops) committed
system.cpu1.num_int_alu_accesses                    0                       # Number of integer alu accesses
system.cpu1.num_fp_alu_accesses                     0                       # Number of float alu accesses
system.cpu1.num_func_calls                          0                       # number of times a function call or return occured
system.cpu1.num_conditional_control_insts            0                       # number of instructions that are conditional controls
system.cpu1.num_int_insts                           0                       # number of integer instructions
system.cpu1.num_fp_insts                            0                       # number of float instructions
system.cpu1.num_int_register_reads                  0                       # number of times the integer registers were read
system.cpu1.num_int_register_writes                 0                       # number of times the integer registers were written
system.cpu1.num_fp_register_reads                   0                       # number of times the floating registers were read
system.cpu1.num_fp_register_writes                  0                       # number of times the floating registers were written
system.cpu1.num_mem_refs                            0                       # number of memory refs
system.cpu1.num_load_insts                          0                       # Number of load instructions
system.cpu1.num_store_insts                         0                       # Number of store instructions
system.cpu1.num_idle_cycles                         0                       # Number of idle cycles
system.cpu1.num_busy_cycles                         0                       # Number of busy cycles
system.cpu1.not_idle_fraction                       0                       # Percentage of non-idle cycles
system.cpu1.idle_fraction                           1                       # Percentage of idle cycles
system.cpu1.op_class::No_OpClass                    0                       # Class of executed instruction
system.cpu1.op_class::IntAlu                        0                       # Class of executed instruction
system.cpu1.op_class::IntMult                       0                       # Class of executed instruction
system.cpu1.op_class::IntDiv                        0                       # Class of executed instruction
system.cpu1.op_class::FloatAdd                      0                       # Class of executed instruction
system.cpu1.op_class::FloatCmp                      0                       # Class of executed instruction
system.cpu1.op_class::FloatCvt                      0                       # Class of executed instruction
system.cpu1.op_class::FloatMult                     0                       # Class of executed instruction
system.cpu1.op_class::FloatDiv                      0                       # Class of executed instruction
system.cpu1.op_class::FloatSqrt                     0                       # Class of executed instruction
system.cpu1.op_class::SimdAdd                       0                       # Class of executed instruction
system.cpu1.op_class::SimdAddAcc                    0                       # Class of executed instruction
system.cpu1.op_class::SimdAlu                       0                       # Class of executed instruction
system.cpu1.op_class::SimdCmp                       0                       # Class of executed instruction
system.cpu1.op_class::SimdCvt                       0                       # Class of executed instruction
system.cpu1.op_class::SimdMisc                      0                       # Class of executed instruction
system.cpu1.op_class::SimdMult                      0                       # Class of executed instruction
system.cpu1.op_class::SimdMultAcc                   0                       # Class of executed instruction
system.cpu1.op_class::SimdShift                     0                       # Class of executed instruction
system.cpu1.op_class::SimdShiftAcc                  0                       # Class of executed instruction
system.cpu1.op_class::SimdSqrt                      0                       # Class of executed instruction
system.cpu1.op_class::SimdFloatAdd                  0                       # Class of executed instruction
system.cpu1.op_class::SimdFloatAlu                  0                       # Class of executed instruction
system.cpu1.op_class::SimdFloatCmp                  0                       # Class of executed instruction
system.cpu1.op_class::SimdFloatCvt                  0                       # Class of executed instruction
system.cpu1.op_class::SimdFloatDiv                  0                       # Class of executed instruction
system.cpu1.op_class::SimdFloatMisc                 0                       # Class of executed instruction
system.cpu1.op_class::SimdFloatMult                 0                       # Class of executed instruction
system.cpu1.op_class::SimdFloatMultAcc              0                       # Class of executed instruction
system.cpu1.op_class::SimdFloatSqrt                 0                       # Class of executed instruction
system.cpu1.op_class::MemRead                       0                       # Class of executed instruction
system.cpu1.op_class::MemWrite                      0                       # Class of executed instruction
system.cpu1.op_class::IprAccess                     0                       # Class of executed instruction
system.cpu1.op_class::InstPrefetch                  0                       # Class of executed instruction
system.cpu1.op_class::total                         0                       # Class of executed instruction
system.gpu.clk_domain.voltage_domain.voltage            1                       # Voltage in Volts
system.gpu.clk_domain.clock                      1429                       # Clock period in ticks
system.gpu.dram_wrapper.clk_domain.clock          541                       # Clock period in ticks
system.gpu.icnt_wrapper.clk_domain.clock         2858                       # Clock period in ticks
system.ruby.delayHist::bucket_size                  2                       # delay histogram for all message
system.ruby.delayHist::max_bucket                  19                       # delay histogram for all message
system.ruby.delayHist::samples                 228096                       # delay histogram for all message
system.ruby.delayHist::mean                  2.257997                       # delay histogram for all message
system.ruby.delayHist::stdev                 5.570416                       # delay histogram for all message
system.ruby.delayHist                    |      195906     85.89%     85.89% |           0      0.00%     85.89% |           0      0.00%     85.89% |           0      0.00%     85.89% |           0      0.00%     85.89% |           0      0.00%     85.89% |           0      0.00%     85.89% |           0      0.00%     85.89% |       32190     14.11%    100.00% |           0      0.00%    100.00% # delay histogram for all message
system.ruby.delayHist::total                   228096                       # delay histogram for all message
system.ruby.outstanding_req_hist::bucket_size            1                      
system.ruby.outstanding_req_hist::max_bucket            9                      
system.ruby.outstanding_req_hist::samples    350169068                      
system.ruby.outstanding_req_hist::mean       1.001584                      
system.ruby.outstanding_req_hist::gmean      1.001099                      
system.ruby.outstanding_req_hist::stdev      0.039768                      
system.ruby.outstanding_req_hist         |           0      0.00%      0.00% |   349614401     99.84%     99.84% |      554667      0.16%    100.00% |           0      0.00%    100.00% |           0      0.00%    100.00% |           0      0.00%    100.00% |           0      0.00%    100.00% |           0      0.00%    100.00% |           0      0.00%    100.00% |           0      0.00%    100.00%
system.ruby.outstanding_req_hist::total     350169068                      
system.ruby.latency_hist::bucket_size             128                      
system.ruby.latency_hist::max_bucket             1279                      
system.ruby.latency_hist::samples           350169067                      
system.ruby.latency_hist::mean               1.016523                      
system.ruby.latency_hist::gmean              1.000474                      
system.ruby.latency_hist::stdev              2.041523                      
system.ruby.latency_hist                 |   350137171     99.99%     99.99% |       27521      0.01%    100.00% |         245      0.00%    100.00% |        3864      0.00%    100.00% |         101      0.00%    100.00% |          35      0.00%    100.00% |           0      0.00%    100.00% |          26      0.00%    100.00% |         104      0.00%    100.00% |           0      0.00%    100.00%
system.ruby.latency_hist::total             350169067                      
system.ruby.hit_latency_hist::bucket_size            1                      
system.ruby.hit_latency_hist::max_bucket            9                      
system.ruby.hit_latency_hist::samples       350136032                      
system.ruby.hit_latency_hist::mean                  1                      
system.ruby.hit_latency_hist::gmean                 1                      
system.ruby.hit_latency_hist             |           0      0.00%      0.00% |   350136032    100.00%    100.00% |           0      0.00%    100.00% |           0      0.00%    100.00% |           0      0.00%    100.00% |           0      0.00%    100.00% |           0      0.00%    100.00% |           0      0.00%    100.00% |           0      0.00%    100.00% |           0      0.00%    100.00%
system.ruby.hit_latency_hist::total         350136032                      
system.ruby.miss_latency_hist::bucket_size          128                      
system.ruby.miss_latency_hist::max_bucket         1279                      
system.ruby.miss_latency_hist::samples          33035                      
system.ruby.miss_latency_hist::mean        176.141971                      
system.ruby.miss_latency_hist::gmean       152.444584                      
system.ruby.miss_latency_hist::stdev       116.220444                      
system.ruby.miss_latency_hist            |        1139      3.45%      3.45% |       27521     83.31%     86.76% |         245      0.74%     87.50% |        3864     11.70%     99.19% |         101      0.31%     99.50% |          35      0.11%     99.61% |           0      0.00%     99.61% |          26      0.08%     99.69% |         104      0.31%    100.00% |           0      0.00%    100.00%
system.ruby.miss_latency_hist::total            33035                      
system.gpu.shader_mmu.numPagefaults                 0                       # Number of Pagefaults
system.gpu.shader_mmu.numPagewalks                  0                       # Number of Pagewalks
system.gpu.shader_mmu.totalRequests                 0                       # Total number of requests
system.gpu.shader_mmu.l2hits                        0                       # Hits in the shared L2
system.gpu.shader_mmu.prefetchHits                  0                       # Number of prefetch hits
system.gpu.shader_mmu.numPrefetches                 0                       # Number of prefetchs
system.gpu.shader_mmu.prefetchFaults                0                       # Number of faults caused by prefetches
system.gpu.shader_mmu.pagefaultLatency::samples            0                       # Latency to complete the pagefault
system.gpu.shader_mmu.pagefaultLatency::mean          nan                       # Latency to complete the pagefault
system.gpu.shader_mmu.pagefaultLatency::gmean          nan                       # Latency to complete the pagefault
system.gpu.shader_mmu.pagefaultLatency::stdev          nan                       # Latency to complete the pagefault
system.gpu.shader_mmu.pagefaultLatency::0            0                       # Latency to complete the pagefault
system.gpu.shader_mmu.pagefaultLatency::1            0                       # Latency to complete the pagefault
system.gpu.shader_mmu.pagefaultLatency::2            0                       # Latency to complete the pagefault
system.gpu.shader_mmu.pagefaultLatency::3            0                       # Latency to complete the pagefault
system.gpu.shader_mmu.pagefaultLatency::4            0                       # Latency to complete the pagefault
system.gpu.shader_mmu.pagefaultLatency::5            0                       # Latency to complete the pagefault
system.gpu.shader_mmu.pagefaultLatency::6            0                       # Latency to complete the pagefault
system.gpu.shader_mmu.pagefaultLatency::7            0                       # Latency to complete the pagefault
system.gpu.shader_mmu.pagefaultLatency::8            0                       # Latency to complete the pagefault
system.gpu.shader_mmu.pagefaultLatency::9            0                       # Latency to complete the pagefault
system.gpu.shader_mmu.pagefaultLatency::10            0                       # Latency to complete the pagefault
system.gpu.shader_mmu.pagefaultLatency::11            0                       # Latency to complete the pagefault
system.gpu.shader_mmu.pagefaultLatency::12            0                       # Latency to complete the pagefault
system.gpu.shader_mmu.pagefaultLatency::13            0                       # Latency to complete the pagefault
system.gpu.shader_mmu.pagefaultLatency::14            0                       # Latency to complete the pagefault
system.gpu.shader_mmu.pagefaultLatency::15            0                       # Latency to complete the pagefault
system.gpu.shader_mmu.pagefaultLatency::16            0                       # Latency to complete the pagefault
system.gpu.shader_mmu.pagefaultLatency::17            0                       # Latency to complete the pagefault
system.gpu.shader_mmu.pagefaultLatency::18            0                       # Latency to complete the pagefault
system.gpu.shader_mmu.pagefaultLatency::19            0                       # Latency to complete the pagefault
system.gpu.shader_mmu.pagefaultLatency::20            0                       # Latency to complete the pagefault
system.gpu.shader_mmu.pagefaultLatency::21            0                       # Latency to complete the pagefault
system.gpu.shader_mmu.pagefaultLatency::22            0                       # Latency to complete the pagefault
system.gpu.shader_mmu.pagefaultLatency::23            0                       # Latency to complete the pagefault
system.gpu.shader_mmu.pagefaultLatency::24            0                       # Latency to complete the pagefault
system.gpu.shader_mmu.pagefaultLatency::25            0                       # Latency to complete the pagefault
system.gpu.shader_mmu.pagefaultLatency::26            0                       # Latency to complete the pagefault
system.gpu.shader_mmu.pagefaultLatency::27            0                       # Latency to complete the pagefault
system.gpu.shader_mmu.pagefaultLatency::28            0                       # Latency to complete the pagefault
system.gpu.shader_mmu.pagefaultLatency::29            0                       # Latency to complete the pagefault
system.gpu.shader_mmu.pagefaultLatency::30            0                       # Latency to complete the pagefault
system.gpu.shader_mmu.pagefaultLatency::31            0                       # Latency to complete the pagefault
system.gpu.shader_mmu.pagefaultLatency::total            0                       # Latency to complete the pagefault
system.gpu.shader_mmu.concurrentWalks::samples            0                       # Number of outstanding walks
system.gpu.shader_mmu.concurrentWalks::mean          nan                       # Number of outstanding walks
system.gpu.shader_mmu.concurrentWalks::gmean          nan                       # Number of outstanding walks
system.gpu.shader_mmu.concurrentWalks::stdev          nan                       # Number of outstanding walks
system.gpu.shader_mmu.concurrentWalks::0            0                       # Number of outstanding walks
system.gpu.shader_mmu.concurrentWalks::1            0                       # Number of outstanding walks
system.gpu.shader_mmu.concurrentWalks::2            0                       # Number of outstanding walks
system.gpu.shader_mmu.concurrentWalks::3            0                       # Number of outstanding walks
system.gpu.shader_mmu.concurrentWalks::4            0                       # Number of outstanding walks
system.gpu.shader_mmu.concurrentWalks::5            0                       # Number of outstanding walks
system.gpu.shader_mmu.concurrentWalks::6            0                       # Number of outstanding walks
system.gpu.shader_mmu.concurrentWalks::7            0                       # Number of outstanding walks
system.gpu.shader_mmu.concurrentWalks::8            0                       # Number of outstanding walks
system.gpu.shader_mmu.concurrentWalks::9            0                       # Number of outstanding walks
system.gpu.shader_mmu.concurrentWalks::10            0                       # Number of outstanding walks
system.gpu.shader_mmu.concurrentWalks::11            0                       # Number of outstanding walks
system.gpu.shader_mmu.concurrentWalks::12            0                       # Number of outstanding walks
system.gpu.shader_mmu.concurrentWalks::13            0                       # Number of outstanding walks
system.gpu.shader_mmu.concurrentWalks::14            0                       # Number of outstanding walks
system.gpu.shader_mmu.concurrentWalks::15            0                       # Number of outstanding walks
system.gpu.shader_mmu.concurrentWalks::total            0                       # Number of outstanding walks
system.gpu.shader_mmu.pagewalkLatency::samples            0                       # Latency to complete the pagewalk
system.gpu.shader_mmu.pagewalkLatency::mean          nan                       # Latency to complete the pagewalk
system.gpu.shader_mmu.pagewalkLatency::gmean          nan                       # Latency to complete the pagewalk
system.gpu.shader_mmu.pagewalkLatency::stdev          nan                       # Latency to complete the pagewalk
system.gpu.shader_mmu.pagewalkLatency::0            0                       # Latency to complete the pagewalk
system.gpu.shader_mmu.pagewalkLatency::1            0                       # Latency to complete the pagewalk
system.gpu.shader_mmu.pagewalkLatency::2            0                       # Latency to complete the pagewalk
system.gpu.shader_mmu.pagewalkLatency::3            0                       # Latency to complete the pagewalk
system.gpu.shader_mmu.pagewalkLatency::4            0                       # Latency to complete the pagewalk
system.gpu.shader_mmu.pagewalkLatency::5            0                       # Latency to complete the pagewalk
system.gpu.shader_mmu.pagewalkLatency::6            0                       # Latency to complete the pagewalk
system.gpu.shader_mmu.pagewalkLatency::7            0                       # Latency to complete the pagewalk
system.gpu.shader_mmu.pagewalkLatency::8            0                       # Latency to complete the pagewalk
system.gpu.shader_mmu.pagewalkLatency::9            0                       # Latency to complete the pagewalk
system.gpu.shader_mmu.pagewalkLatency::10            0                       # Latency to complete the pagewalk
system.gpu.shader_mmu.pagewalkLatency::11            0                       # Latency to complete the pagewalk
system.gpu.shader_mmu.pagewalkLatency::12            0                       # Latency to complete the pagewalk
system.gpu.shader_mmu.pagewalkLatency::13            0                       # Latency to complete the pagewalk
system.gpu.shader_mmu.pagewalkLatency::14            0                       # Latency to complete the pagewalk
system.gpu.shader_mmu.pagewalkLatency::15            0                       # Latency to complete the pagewalk
system.gpu.shader_mmu.pagewalkLatency::16            0                       # Latency to complete the pagewalk
system.gpu.shader_mmu.pagewalkLatency::17            0                       # Latency to complete the pagewalk
system.gpu.shader_mmu.pagewalkLatency::18            0                       # Latency to complete the pagewalk
system.gpu.shader_mmu.pagewalkLatency::19            0                       # Latency to complete the pagewalk
system.gpu.shader_mmu.pagewalkLatency::20            0                       # Latency to complete the pagewalk
system.gpu.shader_mmu.pagewalkLatency::21            0                       # Latency to complete the pagewalk
system.gpu.shader_mmu.pagewalkLatency::22            0                       # Latency to complete the pagewalk
system.gpu.shader_mmu.pagewalkLatency::23            0                       # Latency to complete the pagewalk
system.gpu.shader_mmu.pagewalkLatency::24            0                       # Latency to complete the pagewalk
system.gpu.shader_mmu.pagewalkLatency::25            0                       # Latency to complete the pagewalk
system.gpu.shader_mmu.pagewalkLatency::26            0                       # Latency to complete the pagewalk
system.gpu.shader_mmu.pagewalkLatency::27            0                       # Latency to complete the pagewalk
system.gpu.shader_mmu.pagewalkLatency::28            0                       # Latency to complete the pagewalk
system.gpu.shader_mmu.pagewalkLatency::29            0                       # Latency to complete the pagewalk
system.gpu.shader_mmu.pagewalkLatency::30            0                       # Latency to complete the pagewalk
system.gpu.shader_mmu.pagewalkLatency::31            0                       # Latency to complete the pagewalk
system.gpu.shader_mmu.pagewalkLatency::total            0                       # Latency to complete the pagewalk
system.gpu.kernels_started                          0                       # Number of kernels started
system.gpu.kernels_completed                        0                       # Number of kernels completed
system.gpu.ce.device_dtb.hits                       0                       # Number of hits in this TLB
system.gpu.ce.device_dtb.misses                     0                       # Number of misses in this TLB
system.gpu.ce.device_dtb.hitRate                  nan                       # Hit rate for this TLB
system.gpu.ce.host_dtb.hits                         0                       # Number of hits in this TLB
system.gpu.ce.host_dtb.misses                       0                       # Number of misses in this TLB
system.gpu.ce.host_dtb.hitRate                    nan                       # Hit rate for this TLB
system.gpu.ce.numOperations                         0                       # Number of copy/memset operations
system.gpu.ce.opBytesRead                           0                       # Number of copy bytes read
system.gpu.ce.opBytesWritten                        0                       # Number of copy/memset bytes written
system.gpu.ce.opTimeTicks                           0                       # Total time spent in copy/memset operations
system.gpu.shader_cores0.itb.hits                   0                       # Number of hits in this TLB
system.gpu.shader_cores0.itb.misses                 0                       # Number of misses in this TLB
system.gpu.shader_cores0.itb.hitRate              nan                       # Hit rate for this TLB
system.gpu.shader_cores0.local_loads                0                       # Number of loads from local space
system.gpu.shader_cores0.local_stores               0                       # Number of stores to local space
system.gpu.shader_cores0.shared_loads               0                       # Number of loads from shared space
system.gpu.shader_cores0.shared_stores              0                       # Number of stores to shared space
system.gpu.shader_cores0.param_kernel_loads            0                       # Number of loads from kernel parameter space
system.gpu.shader_cores0.param_local_loads            0                       # Number of loads from local parameter space
system.gpu.shader_cores0.param_local_stores            0                       # Number of stores to local parameter space
system.gpu.shader_cores0.const_loads                0                       # Number of loads from constant space
system.gpu.shader_cores0.tex_loads                  0                       # Number of loads from texture space
system.gpu.shader_cores0.global_loads               0                       # Number of loads from global space
system.gpu.shader_cores0.global_stores              0                       # Number of stores to global space
system.gpu.shader_cores0.surf_loads                 0                       # Number of loads from surface space
system.gpu.shader_cores0.generic_loads              0                       # Number of loads from generic spaces (global, shared, local)
system.gpu.shader_cores0.generic_stores             0                       # Number of stores to generic spaces (global, shared, local)
system.gpu.shader_cores0.inst_cache_requests            0                       # Number of instruction cache requests sent
system.gpu.shader_cores0.inst_cache_retries            0                       # Number of instruction cache retries
system.gpu.shader_cores0.inst_counts::0             0                       # Inst counts: 1: ALU, 2: MAD, 3: CTRL, 4: SFU, 5: MEM, 6: TEX, 7: NOP
system.gpu.shader_cores0.inst_counts::1             0                       # Inst counts: 1: ALU, 2: MAD, 3: CTRL, 4: SFU, 5: MEM, 6: TEX, 7: NOP
system.gpu.shader_cores0.inst_counts::2             0                       # Inst counts: 1: ALU, 2: MAD, 3: CTRL, 4: SFU, 5: MEM, 6: TEX, 7: NOP
system.gpu.shader_cores0.inst_counts::3             0                       # Inst counts: 1: ALU, 2: MAD, 3: CTRL, 4: SFU, 5: MEM, 6: TEX, 7: NOP
system.gpu.shader_cores0.inst_counts::4             0                       # Inst counts: 1: ALU, 2: MAD, 3: CTRL, 4: SFU, 5: MEM, 6: TEX, 7: NOP
system.gpu.shader_cores0.inst_counts::5             0                       # Inst counts: 1: ALU, 2: MAD, 3: CTRL, 4: SFU, 5: MEM, 6: TEX, 7: NOP
system.gpu.shader_cores0.inst_counts::6             0                       # Inst counts: 1: ALU, 2: MAD, 3: CTRL, 4: SFU, 5: MEM, 6: TEX, 7: NOP
system.gpu.shader_cores0.inst_counts::7             0                       # Inst counts: 1: ALU, 2: MAD, 3: CTRL, 4: SFU, 5: MEM, 6: TEX, 7: NOP
system.gpu.shader_cores0.activeCycles               0                       # Number of cycles this shader was executing a CTA
system.gpu.shader_cores0.notStalledCycles            0                       # Number of cycles this shader was actually executing at least one instance
system.gpu.shader_cores0.instInstances              0                       # Total instructions executed by all PEs in the core
system.gpu.shader_cores0.instPerCycle             nan                       # Instruction instances per cycle
system.gpu.shader_cores0.kernels_completed            0                       # Number of kernels completed
system.gpu.shader_cores0.lsq.data_tlb.hits            0                       # Number of hits in this TLB
system.gpu.shader_cores0.lsq.data_tlb.misses            0                       # Number of misses in this TLB
system.gpu.shader_cores0.lsq.data_tlb.hitRate          nan                       # Hit rate for this TLB
system.gpu.shader_cores0.lsq.warpInstBufActive::samples            0                       # Histogram of number of active warp inst buffers at a given time
system.gpu.shader_cores0.lsq.warpInstBufActive::mean          nan                       # Histogram of number of active warp inst buffers at a given time
system.gpu.shader_cores0.lsq.warpInstBufActive::gmean          nan                       # Histogram of number of active warp inst buffers at a given time
system.gpu.shader_cores0.lsq.warpInstBufActive::stdev          nan                       # Histogram of number of active warp inst buffers at a given time
system.gpu.shader_cores0.lsq.warpInstBufActive::0            0                       # Histogram of number of active warp inst buffers at a given time
system.gpu.shader_cores0.lsq.warpInstBufActive::1            0                       # Histogram of number of active warp inst buffers at a given time
system.gpu.shader_cores0.lsq.warpInstBufActive::2            0                       # Histogram of number of active warp inst buffers at a given time
system.gpu.shader_cores0.lsq.warpInstBufActive::3            0                       # Histogram of number of active warp inst buffers at a given time
system.gpu.shader_cores0.lsq.warpInstBufActive::4            0                       # Histogram of number of active warp inst buffers at a given time
system.gpu.shader_cores0.lsq.warpInstBufActive::5            0                       # Histogram of number of active warp inst buffers at a given time
system.gpu.shader_cores0.lsq.warpInstBufActive::6            0                       # Histogram of number of active warp inst buffers at a given time
system.gpu.shader_cores0.lsq.warpInstBufActive::7            0                       # Histogram of number of active warp inst buffers at a given time
system.gpu.shader_cores0.lsq.warpInstBufActive::8            0                       # Histogram of number of active warp inst buffers at a given time
system.gpu.shader_cores0.lsq.warpInstBufActive::9            0                       # Histogram of number of active warp inst buffers at a given time
system.gpu.shader_cores0.lsq.warpInstBufActive::10            0                       # Histogram of number of active warp inst buffers at a given time
system.gpu.shader_cores0.lsq.warpInstBufActive::11            0                       # Histogram of number of active warp inst buffers at a given time
system.gpu.shader_cores0.lsq.warpInstBufActive::12            0                       # Histogram of number of active warp inst buffers at a given time
system.gpu.shader_cores0.lsq.warpInstBufActive::13            0                       # Histogram of number of active warp inst buffers at a given time
system.gpu.shader_cores0.lsq.warpInstBufActive::14            0                       # Histogram of number of active warp inst buffers at a given time
system.gpu.shader_cores0.lsq.warpInstBufActive::15            0                       # Histogram of number of active warp inst buffers at a given time
system.gpu.shader_cores0.lsq.warpInstBufActive::16            0                       # Histogram of number of active warp inst buffers at a given time
system.gpu.shader_cores0.lsq.warpInstBufActive::17            0                       # Histogram of number of active warp inst buffers at a given time
system.gpu.shader_cores0.lsq.warpInstBufActive::18            0                       # Histogram of number of active warp inst buffers at a given time
system.gpu.shader_cores0.lsq.warpInstBufActive::19            0                       # Histogram of number of active warp inst buffers at a given time
system.gpu.shader_cores0.lsq.warpInstBufActive::20            0                       # Histogram of number of active warp inst buffers at a given time
system.gpu.shader_cores0.lsq.warpInstBufActive::21            0                       # Histogram of number of active warp inst buffers at a given time
system.gpu.shader_cores0.lsq.warpInstBufActive::22            0                       # Histogram of number of active warp inst buffers at a given time
system.gpu.shader_cores0.lsq.warpInstBufActive::23            0                       # Histogram of number of active warp inst buffers at a given time
system.gpu.shader_cores0.lsq.warpInstBufActive::24            0                       # Histogram of number of active warp inst buffers at a given time
system.gpu.shader_cores0.lsq.warpInstBufActive::25            0                       # Histogram of number of active warp inst buffers at a given time
system.gpu.shader_cores0.lsq.warpInstBufActive::26            0                       # Histogram of number of active warp inst buffers at a given time
system.gpu.shader_cores0.lsq.warpInstBufActive::27            0                       # Histogram of number of active warp inst buffers at a given time
system.gpu.shader_cores0.lsq.warpInstBufActive::28            0                       # Histogram of number of active warp inst buffers at a given time
system.gpu.shader_cores0.lsq.warpInstBufActive::29            0                       # Histogram of number of active warp inst buffers at a given time
system.gpu.shader_cores0.lsq.warpInstBufActive::30            0                       # Histogram of number of active warp inst buffers at a given time
system.gpu.shader_cores0.lsq.warpInstBufActive::31            0                       # Histogram of number of active warp inst buffers at a given time
system.gpu.shader_cores0.lsq.warpInstBufActive::32            0                       # Histogram of number of active warp inst buffers at a given time
system.gpu.shader_cores0.lsq.warpInstBufActive::33            0                       # Histogram of number of active warp inst buffers at a given time
system.gpu.shader_cores0.lsq.warpInstBufActive::34            0                       # Histogram of number of active warp inst buffers at a given time
system.gpu.shader_cores0.lsq.warpInstBufActive::35            0                       # Histogram of number of active warp inst buffers at a given time
system.gpu.shader_cores0.lsq.warpInstBufActive::36            0                       # Histogram of number of active warp inst buffers at a given time
system.gpu.shader_cores0.lsq.warpInstBufActive::37            0                       # Histogram of number of active warp inst buffers at a given time
system.gpu.shader_cores0.lsq.warpInstBufActive::38            0                       # Histogram of number of active warp inst buffers at a given time
system.gpu.shader_cores0.lsq.warpInstBufActive::39            0                       # Histogram of number of active warp inst buffers at a given time
system.gpu.shader_cores0.lsq.warpInstBufActive::40            0                       # Histogram of number of active warp inst buffers at a given time
system.gpu.shader_cores0.lsq.warpInstBufActive::41            0                       # Histogram of number of active warp inst buffers at a given time
system.gpu.shader_cores0.lsq.warpInstBufActive::42            0                       # Histogram of number of active warp inst buffers at a given time
system.gpu.shader_cores0.lsq.warpInstBufActive::43            0                       # Histogram of number of active warp inst buffers at a given time
system.gpu.shader_cores0.lsq.warpInstBufActive::44            0                       # Histogram of number of active warp inst buffers at a given time
system.gpu.shader_cores0.lsq.warpInstBufActive::45            0                       # Histogram of number of active warp inst buffers at a given time
system.gpu.shader_cores0.lsq.warpInstBufActive::46            0                       # Histogram of number of active warp inst buffers at a given time
system.gpu.shader_cores0.lsq.warpInstBufActive::47            0                       # Histogram of number of active warp inst buffers at a given time
system.gpu.shader_cores0.lsq.warpInstBufActive::48            0                       # Histogram of number of active warp inst buffers at a given time
system.gpu.shader_cores0.lsq.warpInstBufActive::49            0                       # Histogram of number of active warp inst buffers at a given time
system.gpu.shader_cores0.lsq.warpInstBufActive::50            0                       # Histogram of number of active warp inst buffers at a given time
system.gpu.shader_cores0.lsq.warpInstBufActive::51            0                       # Histogram of number of active warp inst buffers at a given time
system.gpu.shader_cores0.lsq.warpInstBufActive::52            0                       # Histogram of number of active warp inst buffers at a given time
system.gpu.shader_cores0.lsq.warpInstBufActive::53            0                       # Histogram of number of active warp inst buffers at a given time
system.gpu.shader_cores0.lsq.warpInstBufActive::54            0                       # Histogram of number of active warp inst buffers at a given time
system.gpu.shader_cores0.lsq.warpInstBufActive::55            0                       # Histogram of number of active warp inst buffers at a given time
system.gpu.shader_cores0.lsq.warpInstBufActive::56            0                       # Histogram of number of active warp inst buffers at a given time
system.gpu.shader_cores0.lsq.warpInstBufActive::57            0                       # Histogram of number of active warp inst buffers at a given time
system.gpu.shader_cores0.lsq.warpInstBufActive::58            0                       # Histogram of number of active warp inst buffers at a given time
system.gpu.shader_cores0.lsq.warpInstBufActive::59            0                       # Histogram of number of active warp inst buffers at a given time
system.gpu.shader_cores0.lsq.warpInstBufActive::60            0                       # Histogram of number of active warp inst buffers at a given time
system.gpu.shader_cores0.lsq.warpInstBufActive::61            0                       # Histogram of number of active warp inst buffers at a given time
system.gpu.shader_cores0.lsq.warpInstBufActive::62            0                       # Histogram of number of active warp inst buffers at a given time
system.gpu.shader_cores0.lsq.warpInstBufActive::63            0                       # Histogram of number of active warp inst buffers at a given time
[...]
system.ruby.IFETCH.miss_latency_hist::total          136                      
system.ruby.RMW_Read.latency_hist::bucket_size            1                      
system.ruby.RMW_Read.latency_hist::max_bucket            9                      
system.ruby.RMW_Read.latency_hist::samples      2487676                      
system.ruby.RMW_Read.latency_hist::mean             1                      
system.ruby.RMW_Read.latency_hist::gmean            1                      
system.ruby.RMW_Read.latency_hist        |           0      0.00%      0.00% |     2487676    100.00%    100.00% |           0      0.00%    100.00% |           0      0.00%    100.00% |           0      0.00%    100.00% |           0      0.00%    100.00% |           0      0.00%    100.00% |           0      0.00%    100.00% |           0      0.00%    100.00% |           0      0.00%    100.00%
system.ruby.RMW_Read.latency_hist::total      2487676                      
system.ruby.RMW_Read.hit_latency_hist::bucket_size            1                      
system.ruby.RMW_Read.hit_latency_hist::max_bucket            9                      
system.ruby.RMW_Read.hit_latency_hist::samples      2487676                      
system.ruby.RMW_Read.hit_latency_hist::mean            1                      
system.ruby.RMW_Read.hit_latency_hist::gmean            1                      
system.ruby.RMW_Read.hit_latency_hist    |           0      0.00%      0.00% |     2487676    100.00%    100.00% |           0      0.00%    100.00% |           0      0.00%    100.00% |           0      0.00%    100.00% |           0      0.00%    100.00% |           0      0.00%    100.00% |           0      0.00%    100.00% |           0      0.00%    100.00% |           0      0.00%    100.00%
system.ruby.RMW_Read.hit_latency_hist::total      2487676                      
system.ruby.Locked_RMW_Read.latency_hist::bucket_size            1                      
system.ruby.Locked_RMW_Read.latency_hist::max_bucket            9                      
system.ruby.Locked_RMW_Read.latency_hist::samples           12                      
system.ruby.Locked_RMW_Read.latency_hist::mean            1                      
system.ruby.Locked_RMW_Read.latency_hist::gmean            1                      
system.ruby.Locked_RMW_Read.latency_hist |           0      0.00%      0.00% |          12    100.00%    100.00% |           0      0.00%    100.00% |           0      0.00%    100.00% |           0      0.00%    100.00% |           0      0.00%    100.00% |           0      0.00%    100.00% |           0      0.00%    100.00% |           0      0.00%    100.00% |           0      0.00%    100.00%
system.ruby.Locked_RMW_Read.latency_hist::total           12                      
system.ruby.Locked_RMW_Read.hit_latency_hist::bucket_size            1                      
system.ruby.Locked_RMW_Read.hit_latency_hist::max_bucket            9                      
system.ruby.Locked_RMW_Read.hit_latency_hist::samples           12                      
system.ruby.Locked_RMW_Read.hit_latency_hist::mean            1                      
system.ruby.Locked_RMW_Read.hit_latency_hist::gmean            1                      
system.ruby.Locked_RMW_Read.hit_latency_hist |           0      0.00%      0.00% |          12    100.00%    100.00% |           0      0.00%    100.00% |           0      0.00%    100.00% |           0      0.00%    100.00% |           0      0.00%    100.00% |           0      0.00%    100.00% |           0      0.00%    100.00% |           0      0.00%    100.00% |           0      0.00%    100.00%
system.ruby.Locked_RMW_Read.hit_latency_hist::total           12                      
system.ruby.Locked_RMW_Write.latency_hist::bucket_size            1                      
system.ruby.Locked_RMW_Write.latency_hist::max_bucket            9                      
system.ruby.Locked_RMW_Write.latency_hist::samples           12                      
system.ruby.Locked_RMW_Write.latency_hist::mean            1                      
system.ruby.Locked_RMW_Write.latency_hist::gmean            1                      
system.ruby.Locked_RMW_Write.latency_hist |           0      0.00%      0.00% |          12    100.00%    100.00% |           0      0.00%    100.00% |           0      0.00%    100.00% |           0      0.00%    100.00% |           0      0.00%    100.00% |           0      0.00%    100.00% |           0      0.00%    100.00% |           0      0.00%    100.00% |           0      0.00%    100.00%
system.ruby.Locked_RMW_Write.latency_hist::total           12                      
system.ruby.Locked_RMW_Write.hit_latency_hist::bucket_size            1                      
system.ruby.Locked_RMW_Write.hit_latency_hist::max_bucket            9                      
system.ruby.Locked_RMW_Write.hit_latency_hist::samples           12                      
system.ruby.Locked_RMW_Write.hit_latency_hist::mean            1                      
system.ruby.Locked_RMW_Write.hit_latency_hist::gmean            1                      
system.ruby.Locked_RMW_Write.hit_latency_hist |           0      0.00%      0.00% |          12    100.00%    100.00% |           0      0.00%    100.00% |           0      0.00%    100.00% |           0      0.00%    100.00% |           0      0.00%    100.00% |           0      0.00%    100.00% |           0      0.00%    100.00% |           0      0.00%    100.00% |           0      0.00%    100.00%
system.ruby.Locked_RMW_Write.hit_latency_hist::total           12                      
system.ruby.Directory_Controller.Fetch          32065      0.00%      0.00%
system.ruby.Directory_Controller.Data           30080      0.00%      0.00%
system.ruby.Directory_Controller.Memory_Data        32065      0.00%      0.00%
system.ruby.Directory_Controller.Memory_Ack        30080      0.00%      0.00%
system.ruby.Directory_Controller.CleanReplacement          518      0.00%      0.00%
system.ruby.Directory_Controller.I.Fetch        32065      0.00%      0.00%
system.ruby.Directory_Controller.M.Data         30080      0.00%      0.00%
system.ruby.Directory_Controller.M.CleanReplacement          518      0.00%      0.00%
system.ruby.Directory_Controller.IM.Memory_Data        32065      0.00%      0.00%
system.ruby.Directory_Controller.MI.Memory_Ack        30080      0.00%      0.00%
system.ruby.L1Cache_Controller.Load      |    43374662    100.00%    100.00% |           0      0.00%    100.00% |           0      0.00%    100.00% |           0      0.00%    100.00% |           0      0.00%    100.00% |           0      0.00%    100.00% |           0      0.00%    100.00% |           0      0.00%    100.00%
system.ruby.L1Cache_Controller.Load::total     43374662                      
system.ruby.L1Cache_Controller.Ifetch    |   257471509    100.00%    100.00% |           0      0.00%    100.00% |           0      0.00%    100.00% |           0      0.00%    100.00% |           0      0.00%    100.00% |           0      0.00%    100.00% |           0      0.00%    100.00% |           0      0.00%    100.00%
system.ruby.L1Cache_Controller.Ifetch::total    257471509                      
system.ruby.L1Cache_Controller.Store     |    49322896    100.00%    100.00% |           0      0.00%    100.00% |           0      0.00%    100.00% |           0      0.00%    100.00% |           0      0.00%    100.00% |           0      0.00%    100.00% |           0      0.00%    100.00% |           0      0.00%    100.00%
system.ruby.L1Cache_Controller.Store::total     49322896                      
system.ruby.L1Cache_Controller.Inv       |         398    100.00%    100.00% |           0      0.00%    100.00% |           0      0.00%    100.00% |           0      0.00%    100.00% |           0      0.00%    100.00% |           0      0.00%    100.00% |           0      0.00%    100.00% |           0      0.00%    100.00%
system.ruby.L1Cache_Controller.Inv::total          398                      
system.ruby.L1Cache_Controller.L1_Replacement |       32907    100.00%    100.00% |           0      0.00%    100.00% |           0      0.00%    100.00% |           0      0.00%    100.00% |           0      0.00%    100.00% |           0      0.00%    100.00% |           0      0.00%    100.00% |           0      0.00%    100.00%
system.ruby.L1Cache_Controller.L1_Replacement::total        32907                      
system.ruby.L1Cache_Controller.Data_Exclusive |         630    100.00%    100.00% |           0      0.00%    100.00% |           0      0.00%    100.00% |           0      0.00%    100.00% |           0      0.00%    100.00% |           0      0.00%    100.00% |           0      0.00%    100.00% |           0      0.00%    100.00%
system.ruby.L1Cache_Controller.Data_Exclusive::total          630                      
system.ruby.L1Cache_Controller.Data_all_Acks |       32405    100.00%    100.00% |           0      0.00%    100.00% |           0      0.00%    100.00% |           0      0.00%    100.00% |           0      0.00%    100.00% |           0      0.00%    100.00% |           0      0.00%    100.00% |           0      0.00%    100.00%
system.ruby.L1Cache_Controller.Data_all_Acks::total        32405                      
system.ruby.L1Cache_Controller.WB_Ack    |       32834    100.00%    100.00% |           0      0.00%    100.00% |           0      0.00%    100.00% |           0      0.00%    100.00% |           0      0.00%    100.00% |           0      0.00%    100.00% |           0      0.00%    100.00% |           0      0.00%    100.00%
system.ruby.L1Cache_Controller.WB_Ack::total        32834                      
system.ruby.L1Cache_Controller.NP.Load   |         630    100.00%    100.00% |           0      0.00%    100.00% |           0      0.00%    100.00% |           0      0.00%    100.00% |           0      0.00%    100.00% |           0      0.00%    100.00% |           0      0.00%    100.00% |           0      0.00%    100.00%
system.ruby.L1Cache_Controller.NP.Load::total          630                      
system.ruby.L1Cache_Controller.NP.Ifetch |          81    100.00%    100.00% |           0      0.00%    100.00% |           0      0.00%    100.00% |           0      0.00%    100.00% |           0      0.00%    100.00% |           0      0.00%    100.00% |           0      0.00%    100.00% |           0      0.00%    100.00%
system.ruby.L1Cache_Controller.NP.Ifetch::total           81                      
system.ruby.L1Cache_Controller.NP.Store  |       32269    100.00%    100.00% |           0      0.00%    100.00% |           0      0.00%    100.00% |           0      0.00%    100.00% |           0      0.00%    100.00% |           0      0.00%    100.00% |           0      0.00%    100.00% |           0      0.00%    100.00%
system.ruby.L1Cache_Controller.NP.Store::total        32269                      
system.ruby.L1Cache_Controller.NP.Inv    |         150    100.00%    100.00% |           0      0.00%    100.00% |           0      0.00%    100.00% |           0      0.00%    100.00% |           0      0.00%    100.00% |           0      0.00%    100.00% |           0      0.00%    100.00% |           0      0.00%    100.00%
system.ruby.L1Cache_Controller.NP.Inv::total          150                      
system.ruby.L1Cache_Controller.I.Ifetch  |          55    100.00%    100.00% |           0      0.00%    100.00% |           0      0.00%    100.00% |           0      0.00%    100.00% |           0      0.00%    100.00% |           0      0.00%    100.00% |           0      0.00%    100.00% |           0      0.00%    100.00%
system.ruby.L1Cache_Controller.I.Ifetch::total           55                      
system.ruby.L1Cache_Controller.I.L1_Replacement |          46    100.00%    100.00% |           0      0.00%    100.00% |           0      0.00%    100.00% |           0      0.00%    100.00% |           0      0.00%    100.00% |           0      0.00%    100.00% |           0      0.00%    100.00% |           0      0.00%    100.00%
system.ruby.L1Cache_Controller.I.L1_Replacement::total           46                      
system.ruby.L1Cache_Controller.S.Ifetch  |   257471373    100.00%    100.00% |           0      0.00%    100.00% |           0      0.00%    100.00% |           0      0.00%    100.00% |           0      0.00%    100.00% |           0      0.00%    100.00% |           0      0.00%    100.00% |           0      0.00%    100.00%
system.ruby.L1Cache_Controller.S.Ifetch::total    257471373                      
system.ruby.L1Cache_Controller.S.Inv     |         248    100.00%    100.00% |           0      0.00%    100.00% |           0      0.00%    100.00% |           0      0.00%    100.00% |           0      0.00%    100.00% |           0      0.00%    100.00% |           0      0.00%    100.00% |           0      0.00%    100.00%
system.ruby.L1Cache_Controller.S.Inv::total          248                      
system.ruby.L1Cache_Controller.S.L1_Replacement |          27    100.00%    100.00% |           0      0.00%    100.00% |           0      0.00%    100.00% |           0      0.00%    100.00% |           0      0.00%    100.00% |           0      0.00%    100.00% |           0      0.00%    100.00% |           0      0.00%    100.00%
system.ruby.L1Cache_Controller.S.L1_Replacement::total           27                      
system.ruby.L1Cache_Controller.E.Load    |    21417625    100.00%    100.00% |           0      0.00%    100.00% |           0      0.00%    100.00% |           0      0.00%    100.00% |           0      0.00%    100.00% |           0      0.00%    100.00% |           0      0.00%    100.00% |           0      0.00%    100.00%
system.ruby.L1Cache_Controller.E.Load::total     21417625                      
system.ruby.L1Cache_Controller.E.Store   |          19    100.00%    100.00% |           0      0.00%    100.00% |           0      0.00%    100.00% |           0      0.00%    100.00% |           0      0.00%    100.00% |           0      0.00%    100.00% |           0      0.00%    100.00% |           0      0.00%    100.00%
system.ruby.L1Cache_Controller.E.Store::total           19                      
system.ruby.L1Cache_Controller.E.L1_Replacement |         644    100.00%    100.00% |           0      0.00%    100.00% |           0      0.00%    100.00% |           0      0.00%    100.00% |           0      0.00%    100.00% |           0      0.00%    100.00% |           0      0.00%    100.00% |           0      0.00%    100.00%
system.ruby.L1Cache_Controller.E.L1_Replacement::total          644                      
system.ruby.L1Cache_Controller.M.Load    |    21956407    100.00%    100.00% |           0      0.00%    100.00% |           0      0.00%    100.00% |           0      0.00%    100.00% |           0      0.00%    100.00% |           0      0.00%    100.00% |           0      0.00%    100.00% |           0      0.00%    100.00%
system.ruby.L1Cache_Controller.M.Load::total     21956407                      
system.ruby.L1Cache_Controller.M.Store   |    49290608    100.00%    100.00% |           0      0.00%    100.00% |           0      0.00%    100.00% |           0      0.00%    100.00% |           0      0.00%    100.00% |           0      0.00%    100.00% |           0      0.00%    100.00% |           0      0.00%    100.00%
system.ruby.L1Cache_Controller.M.Store::total     49290608                      
system.ruby.L1Cache_Controller.M.L1_Replacement |       32190    100.00%    100.00% |           0      0.00%    100.00% |           0      0.00%    100.00% |           0      0.00%    100.00% |           0      0.00%    100.00% |           0      0.00%    100.00% |           0      0.00%    100.00% |           0      0.00%    100.00%
system.ruby.L1Cache_Controller.M.L1_Replacement::total        32190                      
system.ruby.L1Cache_Controller.IS.Data_Exclusive |         630    100.00%    100.00% |           0      0.00%    100.00% |           0      0.00%    100.00% |           0      0.00%    100.00% |           0      0.00%    100.00% |           0      0.00%    100.00% |           0      0.00%    100.00% |           0      0.00%    100.00%
system.ruby.L1Cache_Controller.IS.Data_Exclusive::total          630                      
system.ruby.L1Cache_Controller.IS.Data_all_Acks |         136    100.00%    100.00% |           0      0.00%    100.00% |           0      0.00%    100.00% |           0      0.00%    100.00% |           0      0.00%    100.00% |           0      0.00%    100.00% |           0      0.00%    100.00% |           0      0.00%    100.00%
system.ruby.L1Cache_Controller.IS.Data_all_Acks::total          136                      
system.ruby.L1Cache_Controller.IM.Data_all_Acks |       32269    100.00%    100.00% |           0      0.00%    100.00% |           0      0.00%    100.00% |           0      0.00%    100.00% |           0      0.00%    100.00% |           0      0.00%    100.00% |           0      0.00%    100.00% |           0      0.00%    100.00%
system.ruby.L1Cache_Controller.IM.Data_all_Acks::total        32269                      
system.ruby.L1Cache_Controller.M_I.WB_Ack |       32834    100.00%    100.00% |           0      0.00%    100.00% |           0      0.00%    100.00% |           0      0.00%    100.00% |           0      0.00%    100.00% |           0      0.00%    100.00% |           0      0.00%    100.00% |           0      0.00%    100.00%
system.ruby.L1Cache_Controller.M_I.WB_Ack::total        32834                      
system.ruby.L2Cache_Controller.L1_GET_INSTR          136      0.00%      0.00%
system.ruby.L2Cache_Controller.L1_GETS            630      0.00%      0.00%
system.ruby.L2Cache_Controller.L1_GETX          32269      0.00%      0.00%
system.ruby.L2Cache_Controller.L1_PUTX          32834      0.00%      0.00%
system.ruby.L2Cache_Controller.L2_Replacement        30080      0.00%      0.00%
system.ruby.L2Cache_Controller.L2_Replacement_clean          518      0.00%      0.00%
system.ruby.L2Cache_Controller.Mem_Data         32065      0.00%      0.00%
system.ruby.L2Cache_Controller.Mem_Ack          30598      0.00%      0.00%
system.ruby.L2Cache_Controller.Ack_all            398      0.00%      0.00%
system.ruby.L2Cache_Controller.Exclusive_Unblock        32899      0.00%      0.00%
system.ruby.L2Cache_Controller.NP.L1_GET_INSTR          132      0.00%      0.00%
system.ruby.L2Cache_Controller.NP.L1_GETS           85      0.00%      0.00%
system.ruby.L2Cache_Controller.NP.L1_GETX        31848      0.00%      0.00%
system.ruby.L2Cache_Controller.SS.L1_GET_INSTR            4      0.00%      0.00%
system.ruby.L2Cache_Controller.SS.L2_Replacement_clean          398      0.00%      0.00%
system.ruby.L2Cache_Controller.M.L1_GETS          545      0.00%      0.00%
system.ruby.L2Cache_Controller.M.L1_GETX          421      0.00%      0.00%
system.ruby.L2Cache_Controller.M.L2_Replacement        30080      0.00%      0.00%
system.ruby.L2Cache_Controller.M.L2_Replacement_clean          120      0.00%      0.00%
system.ruby.L2Cache_Controller.MT.L1_PUTX        32834      0.00%      0.00%
system.ruby.L2Cache_Controller.M_I.Mem_Ack        30598      0.00%      0.00%
system.ruby.L2Cache_Controller.I_I.Ack_all          398      0.00%      0.00%
system.ruby.L2Cache_Controller.ISS.Mem_Data           85      0.00%      0.00%
system.ruby.L2Cache_Controller.IS.Mem_Data          132      0.00%      0.00%
system.ruby.L2Cache_Controller.IM.Mem_Data        31848      0.00%      0.00%
system.ruby.L2Cache_Controller.MT_MB.Exclusive_Unblock        32899      0.00%      0.00%

---------- End Simulation Statistics   ----------
