
---------- Begin Simulation Statistics ----------
sim_seconds                                  0.011076                       # Number of seconds simulated
sim_ticks                                 11076328500                       # Number of ticks simulated
final_tick                                11076328500                       # Number of ticks from beginning of simulation (restored from checkpoints and never reset)
sim_freq                                 1000000000000                       # Frequency of simulated ticks
host_inst_rate                                  45499                       # Simulator instruction rate (inst/s)
host_op_rate                                    78646                       # Simulator op (including micro ops) rate (op/s)
host_tick_rate                              125810924                       # Simulator tick rate (ticks/s)
host_mem_usage                                4542452                       # Number of bytes of host memory used
host_seconds                                    88.04                       # Real time elapsed on the host
sim_insts                                     4005682                       # Number of instructions simulated
sim_ops                                       6923930                       # Number of ops (including micro ops) simulated
system.voltage_domain.voltage                       1                       # Voltage in Volts
system.clk_domain.clock                          1000                       # Clock period in ticks
system.mem_ctrls.bytes_read::ruby.dir_cntrl0     18903296                       # Number of bytes read from this memory
system.mem_ctrls.bytes_read::total           18903296                       # Number of bytes read from this memory
system.mem_ctrls.bytes_written::ruby.dir_cntrl0      8665344                       # Number of bytes written to this memory
system.mem_ctrls.bytes_written::total         8665344                       # Number of bytes written to this memory
system.mem_ctrls.num_reads::ruby.dir_cntrl0       147682                       # Number of read requests responded to by this memory
system.mem_ctrls.num_reads::total              147682                       # Number of read requests responded to by this memory
system.mem_ctrls.num_writes::ruby.dir_cntrl0        67698                       # Number of write requests responded to by this memory
system.mem_ctrls.num_writes::total              67698                       # Number of write requests responded to by this memory
system.mem_ctrls.bw_read::ruby.dir_cntrl0   1706639163                       # Total read bandwidth from this memory (bytes/s)
system.mem_ctrls.bw_read::total            1706639163                       # Total read bandwidth from this memory (bytes/s)
system.mem_ctrls.bw_write::ruby.dir_cntrl0    782329993                       # Write bandwidth from this memory (bytes/s)
system.mem_ctrls.bw_write::total            782329993                       # Write bandwidth from this memory (bytes/s)
system.mem_ctrls.bw_total::ruby.dir_cntrl0   2488969156                       # Total bandwidth to/from this memory (bytes/s)
system.mem_ctrls.bw_total::total           2488969156                       # Total bandwidth to/from this memory (bytes/s)
system.mem_ctrls.readReqs                      147682                       # Number of read requests accepted
system.mem_ctrls.writeReqs                      67698                       # Number of write requests accepted
system.mem_ctrls.readBursts                    295364                       # Number of DRAM read bursts, including those serviced by the write queue
system.mem_ctrls.writeBursts                   135396                       # Number of DRAM write bursts, including those merged in the write queue
system.mem_ctrls.bytesReadDRAM               18410752                       # Total number of bytes read from DRAM
system.mem_ctrls.bytesReadWrQ                  492544                       # Total number of bytes read from write queue
system.mem_ctrls.bytesWritten                 8291008                       # Total number of bytes written to DRAM
system.mem_ctrls.bytesReadSys                18903296                       # Total read bytes from the system interface side
system.mem_ctrls.bytesWrittenSys              8665344                       # Total written bytes from the system interface side
system.mem_ctrls.servicedByWrQ                   7696                       # Number of DRAM read bursts serviced by the write queue
system.mem_ctrls.mergedWrBursts                  5824                       # Number of DRAM write bursts merged with an existing one
system.mem_ctrls.neitherReadNorWriteReqs            0                       # Number of requests that are neither read nor write
system.mem_ctrls.perBankRdBursts::0             22788                       # Per bank write bursts
system.mem_ctrls.perBankRdBursts::1             22931                       # Per bank write bursts
system.mem_ctrls.perBankRdBursts::2             17282                       # Per bank write bursts
system.mem_ctrls.perBankRdBursts::3             17059                       # Per bank write bursts
system.mem_ctrls.perBankRdBursts::4             18149                       # Per bank write bursts
system.mem_ctrls.perBankRdBursts::5             17169                       # Per bank write bursts
system.mem_ctrls.perBankRdBursts::6             16664                       # Per bank write bursts
system.mem_ctrls.perBankRdBursts::7             16654                       # Per bank write bursts
system.mem_ctrls.perBankRdBursts::8             18620                       # Per bank write bursts
system.mem_ctrls.perBankRdBursts::9             16808                       # Per bank write bursts
system.mem_ctrls.perBankRdBursts::10            16463                       # Per bank write bursts
system.mem_ctrls.perBankRdBursts::11            16726                       # Per bank write bursts
system.mem_ctrls.perBankRdBursts::12            18945                       # Per bank write bursts
system.mem_ctrls.perBankRdBursts::13            18207                       # Per bank write bursts
system.mem_ctrls.perBankRdBursts::14            16624                       # Per bank write bursts
system.mem_ctrls.perBankRdBursts::15            16579                       # Per bank write bursts
system.mem_ctrls.perBankWrBursts::0              8030                       # Per bank write bursts
system.mem_ctrls.perBankWrBursts::1              8284                       # Per bank write bursts
system.mem_ctrls.perBankWrBursts::2              8160                       # Per bank write bursts
system.mem_ctrls.perBankWrBursts::3              8016                       # Per bank write bursts
system.mem_ctrls.perBankWrBursts::4              8058                       # Per bank write bursts
system.mem_ctrls.perBankWrBursts::5              8088                       # Per bank write bursts
system.mem_ctrls.perBankWrBursts::6              8046                       # Per bank write bursts
system.mem_ctrls.perBankWrBursts::7              7945                       # Per bank write bursts
system.mem_ctrls.perBankWrBursts::8              7944                       # Per bank write bursts
system.mem_ctrls.perBankWrBursts::9              8146                       # Per bank write bursts
system.mem_ctrls.perBankWrBursts::10             8068                       # Per bank write bursts
system.mem_ctrls.perBankWrBursts::11             8030                       # Per bank write bursts
system.mem_ctrls.perBankWrBursts::12             8349                       # Per bank write bursts
system.mem_ctrls.perBankWrBursts::13             8178                       # Per bank write bursts
system.mem_ctrls.perBankWrBursts::14             8137                       # Per bank write bursts
system.mem_ctrls.perBankWrBursts::15             8068                       # Per bank write bursts
system.mem_ctrls.numRdRetry                     36020                       # Number of times read queue was full causing retry
system.mem_ctrls.numWrRetry                        82                       # Number of times write queue was full causing retry
system.mem_ctrls.totGap                   11076263500                       # Total gap between requests
system.mem_ctrls.readPktSize::0                     0                       # Read request sizes (log2)
system.mem_ctrls.readPktSize::1                     0                       # Read request sizes (log2)
system.mem_ctrls.readPktSize::2                     0                       # Read request sizes (log2)
system.mem_ctrls.readPktSize::3                     0                       # Read request sizes (log2)
system.mem_ctrls.readPktSize::4                     0                       # Read request sizes (log2)
system.mem_ctrls.readPktSize::5                     0                       # Read request sizes (log2)
system.mem_ctrls.readPktSize::6                295364                       # Read request sizes (log2)
system.mem_ctrls.writePktSize::0                    0                       # Write request sizes (log2)
system.mem_ctrls.writePktSize::1                    0                       # Write request sizes (log2)
system.mem_ctrls.writePktSize::2                    0                       # Write request sizes (log2)
system.mem_ctrls.writePktSize::3                    0                       # Write request sizes (log2)
system.mem_ctrls.writePktSize::4                    0                       # Write request sizes (log2)
system.mem_ctrls.writePktSize::5                    0                       # Write request sizes (log2)
system.mem_ctrls.writePktSize::6               135396                       # Write request sizes (log2)
system.mem_ctrls.rdQLenPdf::0                   31496                       # What read queue length does an incoming req see
system.mem_ctrls.rdQLenPdf::1                   32110                       # What read queue length does an incoming req see
system.mem_ctrls.rdQLenPdf::2                    5600                       # What read queue length does an incoming req see
system.mem_ctrls.rdQLenPdf::3                    6818                       # What read queue length does an incoming req see
system.mem_ctrls.rdQLenPdf::4                   11560                       # What read queue length does an incoming req see
system.mem_ctrls.rdQLenPdf::5                   13226                       # What read queue length does an incoming req see
system.mem_ctrls.rdQLenPdf::6                   13490                       # What read queue length does an incoming req see
system.mem_ctrls.rdQLenPdf::7                   13015                       # What read queue length does an incoming req see
system.mem_ctrls.rdQLenPdf::8                   12851                       # What read queue length does an incoming req see
system.mem_ctrls.rdQLenPdf::9                   12435                       # What read queue length does an incoming req see
system.mem_ctrls.rdQLenPdf::10                  10746                       # What read queue length does an incoming req see
system.mem_ctrls.rdQLenPdf::11                  10265                       # What read queue length does an incoming req see
system.mem_ctrls.rdQLenPdf::12                   8262                       # What read queue length does an incoming req see
system.mem_ctrls.rdQLenPdf::13                   7375                       # What read queue length does an incoming req see
system.mem_ctrls.rdQLenPdf::14                   5694                       # What read queue length does an incoming req see
system.mem_ctrls.rdQLenPdf::15                   5506                       # What read queue length does an incoming req see
system.mem_ctrls.rdQLenPdf::16                   3301                       # What read queue length does an incoming req see
system.mem_ctrls.rdQLenPdf::17                   3145                       # What read queue length does an incoming req see
system.mem_ctrls.rdQLenPdf::18                   2740                       # What read queue length does an incoming req see
system.mem_ctrls.rdQLenPdf::19                   2906                       # What read queue length does an incoming req see
system.mem_ctrls.rdQLenPdf::20                   2826                       # What read queue length does an incoming req see
system.mem_ctrls.rdQLenPdf::21                   2757                       # What read queue length does an incoming req see
system.mem_ctrls.rdQLenPdf::22                   2706                       # What read queue length does an incoming req see
system.mem_ctrls.rdQLenPdf::23                   3509                       # What read queue length does an incoming req see
system.mem_ctrls.rdQLenPdf::24                   4091                       # What read queue length does an incoming req see
system.mem_ctrls.rdQLenPdf::25                   5481                       # What read queue length does an incoming req see
system.mem_ctrls.rdQLenPdf::26                   5267                       # What read queue length does an incoming req see
system.mem_ctrls.rdQLenPdf::27                   3271                       # What read queue length does an incoming req see
system.mem_ctrls.rdQLenPdf::28                   2678                       # What read queue length does an incoming req see
system.mem_ctrls.rdQLenPdf::29                   2356                       # What read queue length does an incoming req see
system.mem_ctrls.rdQLenPdf::30                  20544                       # What read queue length does an incoming req see
system.mem_ctrls.rdQLenPdf::31                  19641                       # What read queue length does an incoming req see
system.mem_ctrls.wrQLenPdf::0                       1                       # What write queue length does an incoming req see
system.mem_ctrls.wrQLenPdf::1                       1                       # What write queue length does an incoming req see
system.mem_ctrls.wrQLenPdf::2                       1                       # What write queue length does an incoming req see
system.mem_ctrls.wrQLenPdf::3                       1                       # What write queue length does an incoming req see
system.mem_ctrls.wrQLenPdf::4                       1                       # What write queue length does an incoming req see
system.mem_ctrls.wrQLenPdf::5                       1                       # What write queue length does an incoming req see
system.mem_ctrls.wrQLenPdf::6                       1                       # What write queue length does an incoming req see
system.mem_ctrls.wrQLenPdf::7                       1                       # What write queue length does an incoming req see
system.mem_ctrls.wrQLenPdf::8                       1                       # What write queue length does an incoming req see
system.mem_ctrls.wrQLenPdf::9                       1                       # What write queue length does an incoming req see
system.mem_ctrls.wrQLenPdf::10                      1                       # What write queue length does an incoming req see
system.mem_ctrls.wrQLenPdf::11                      1                       # What write queue length does an incoming req see
system.mem_ctrls.wrQLenPdf::12                      1                       # What write queue length does an incoming req see
system.mem_ctrls.wrQLenPdf::13                      1                       # What write queue length does an incoming req see
system.mem_ctrls.wrQLenPdf::14                      1                       # What write queue length does an incoming req see
system.mem_ctrls.wrQLenPdf::15                    149                       # What write queue length does an incoming req see
system.mem_ctrls.wrQLenPdf::16                    159                       # What write queue length does an incoming req see
system.mem_ctrls.wrQLenPdf::17                   2033                       # What write queue length does an incoming req see
system.mem_ctrls.wrQLenPdf::18                   2213                       # What write queue length does an incoming req see
system.mem_ctrls.wrQLenPdf::19                   2400                       # What write queue length does an incoming req see
system.mem_ctrls.wrQLenPdf::20                   2615                       # What write queue length does an incoming req see
system.mem_ctrls.wrQLenPdf::21                   3205                       # What write queue length does an incoming req see
system.mem_ctrls.wrQLenPdf::22                   3499                       # What write queue length does an incoming req see
system.mem_ctrls.wrQLenPdf::23                   4527                       # What write queue length does an incoming req see
system.mem_ctrls.wrQLenPdf::24                   5033                       # What write queue length does an incoming req see
system.mem_ctrls.wrQLenPdf::25                   5819                       # What write queue length does an incoming req see
system.mem_ctrls.wrQLenPdf::26                   5788                       # What write queue length does an incoming req see
system.mem_ctrls.wrQLenPdf::27                   6172                       # What write queue length does an incoming req see
system.mem_ctrls.wrQLenPdf::28                   6286                       # What write queue length does an incoming req see
system.mem_ctrls.wrQLenPdf::29                   6257                       # What write queue length does an incoming req see
system.mem_ctrls.wrQLenPdf::30                   6283                       # What write queue length does an incoming req see
system.mem_ctrls.wrQLenPdf::31                   6506                       # What write queue length does an incoming req see
system.mem_ctrls.wrQLenPdf::32                   6421                       # What write queue length does an incoming req see
system.mem_ctrls.wrQLenPdf::33                   2432                       # What write queue length does an incoming req see
system.mem_ctrls.wrQLenPdf::34                   1764                       # What write queue length does an incoming req see
system.mem_ctrls.wrQLenPdf::35                   1345                       # What write queue length does an incoming req see
system.mem_ctrls.wrQLenPdf::36                   1181                       # What write queue length does an incoming req see
system.mem_ctrls.wrQLenPdf::37                   1031                       # What write queue length does an incoming req see
system.mem_ctrls.wrQLenPdf::38                    949                       # What write queue length does an incoming req see
system.mem_ctrls.wrQLenPdf::39                    962                       # What write queue length does an incoming req see
system.mem_ctrls.wrQLenPdf::40                    977                       # What write queue length does an incoming req see
system.mem_ctrls.wrQLenPdf::41                    982                       # What write queue length does an incoming req see
system.mem_ctrls.wrQLenPdf::42                    934                       # What write queue length does an incoming req see
system.mem_ctrls.wrQLenPdf::43                    853                       # What write queue length does an incoming req see
system.mem_ctrls.wrQLenPdf::44                    819                       # What write queue length does an incoming req see
system.mem_ctrls.wrQLenPdf::45                    849                       # What write queue length does an incoming req see
system.mem_ctrls.wrQLenPdf::46                    853                       # What write queue length does an incoming req see
system.mem_ctrls.wrQLenPdf::47                   1103                       # What write queue length does an incoming req see
system.mem_ctrls.wrQLenPdf::48                   1213                       # What write queue length does an incoming req see
system.mem_ctrls.wrQLenPdf::49                   2125                       # What write queue length does an incoming req see
system.mem_ctrls.wrQLenPdf::50                   2464                       # What write queue length does an incoming req see
system.mem_ctrls.wrQLenPdf::51                   2570                       # What write queue length does an incoming req see
system.mem_ctrls.wrQLenPdf::52                   2591                       # What write queue length does an incoming req see
system.mem_ctrls.wrQLenPdf::53                   2905                       # What write queue length does an incoming req see
system.mem_ctrls.wrQLenPdf::54                   5559                       # What write queue length does an incoming req see
system.mem_ctrls.wrQLenPdf::55                   8338                       # What write queue length does an incoming req see
system.mem_ctrls.wrQLenPdf::56                   6391                       # What write queue length does an incoming req see
system.mem_ctrls.wrQLenPdf::57                   1809                       # What write queue length does an incoming req see
system.mem_ctrls.wrQLenPdf::58                    518                       # What write queue length does an incoming req see
system.mem_ctrls.wrQLenPdf::59                    252                       # What write queue length does an incoming req see
system.mem_ctrls.wrQLenPdf::60                    150                       # What write queue length does an incoming req see
system.mem_ctrls.wrQLenPdf::61                     89                       # What write queue length does an incoming req see
system.mem_ctrls.wrQLenPdf::62                    115                       # What write queue length does an incoming req see
system.mem_ctrls.wrQLenPdf::63                     69                       # What write queue length does an incoming req see
system.mem_ctrls.bytesPerActivate::samples        58395                       # Bytes accessed per row activation
system.mem_ctrls.bytesPerActivate::mean    457.215036                       # Bytes accessed per row activation
system.mem_ctrls.bytesPerActivate::gmean   334.393161                       # Bytes accessed per row activation
system.mem_ctrls.bytesPerActivate::stdev   345.118472                       # Bytes accessed per row activation
system.mem_ctrls.bytesPerActivate::0-127          491      0.84%      0.84% # Bytes accessed per row activation
system.mem_ctrls.bytesPerActivate::128-255        18159     31.10%     31.94% # Bytes accessed per row activation
system.mem_ctrls.bytesPerActivate::256-383        11409     19.54%     51.48% # Bytes accessed per row activation
system.mem_ctrls.bytesPerActivate::384-511         4781      8.19%     59.66% # Bytes accessed per row activation
system.mem_ctrls.bytesPerActivate::512-639         6470     11.08%     70.74% # Bytes accessed per row activation
system.mem_ctrls.bytesPerActivate::640-767         1851      3.17%     73.91% # Bytes accessed per row activation
system.mem_ctrls.bytesPerActivate::768-895         1810      3.10%     77.01% # Bytes accessed per row activation
system.mem_ctrls.bytesPerActivate::896-1023         1157      1.98%     78.99% # Bytes accessed per row activation
system.mem_ctrls.bytesPerActivate::1024-1151        12267     21.01%    100.00% # Bytes accessed per row activation
system.mem_ctrls.bytesPerActivate::total        58395                       # Bytes accessed per row activation
system.mem_ctrls.rdPerTurnAround::samples         8063                       # Reads before turning the bus around for writes
system.mem_ctrls.rdPerTurnAround::mean      35.538137                       # Reads before turning the bus around for writes
system.mem_ctrls.rdPerTurnAround::gmean     20.439284                       # Reads before turning the bus around for writes
system.mem_ctrls.rdPerTurnAround::stdev    114.054567                       # Reads before turning the bus around for writes
system.mem_ctrls.rdPerTurnAround::0-127          7889     97.84%     97.84% # Reads before turning the bus around for writes
system.mem_ctrls.rdPerTurnAround::128-255           54      0.67%     98.51% # Reads before turning the bus around for writes
system.mem_ctrls.rdPerTurnAround::256-383           29      0.36%     98.87% # Reads before turning the bus around for writes
system.mem_ctrls.rdPerTurnAround::384-511           14      0.17%     99.05% # Reads before turning the bus around for writes
system.mem_ctrls.rdPerTurnAround::512-639           28      0.35%     99.39% # Reads before turning the bus around for writes
system.mem_ctrls.rdPerTurnAround::640-767            9      0.11%     99.50% # Reads before turning the bus around for writes
system.mem_ctrls.rdPerTurnAround::768-895            6      0.07%     99.58% # Reads before turning the bus around for writes
system.mem_ctrls.rdPerTurnAround::896-1023            7      0.09%     99.67% # Reads before turning the bus around for writes
system.mem_ctrls.rdPerTurnAround::1024-1151            4      0.05%     99.71% # Reads before turning the bus around for writes
system.mem_ctrls.rdPerTurnAround::1152-1279            4      0.05%     99.76% # Reads before turning the bus around for writes
system.mem_ctrls.rdPerTurnAround::1408-1535            2      0.02%     99.79% # Reads before turning the bus around for writes
system.mem_ctrls.rdPerTurnAround::1536-1663            6      0.07%     99.86% # Reads before turning the bus around for writes
system.mem_ctrls.rdPerTurnAround::1664-1791            5      0.06%     99.93% # Reads before turning the bus around for writes
system.mem_ctrls.rdPerTurnAround::1792-1919            3      0.04%     99.96% # Reads before turning the bus around for writes
system.mem_ctrls.rdPerTurnAround::1920-2047            1      0.01%     99.98% # Reads before turning the bus around for writes
system.mem_ctrls.rdPerTurnAround::2432-2559            1      0.01%     99.99% # Reads before turning the bus around for writes
system.mem_ctrls.rdPerTurnAround::3584-3711            1      0.01%    100.00% # Reads before turning the bus around for writes
system.mem_ctrls.rdPerTurnAround::total          8063                       # Reads before turning the bus around for writes
system.mem_ctrls.wrPerTurnAround::samples         8063                       # Writes before turning the bus around for reads
system.mem_ctrls.wrPerTurnAround::mean      16.066849                       # Writes before turning the bus around for reads
system.mem_ctrls.wrPerTurnAround::gmean     16.057415                       # Writes before turning the bus around for reads
system.mem_ctrls.wrPerTurnAround::stdev      0.655205                       # Writes before turning the bus around for reads
system.mem_ctrls.wrPerTurnAround::16             7891     97.87%     97.87% # Writes before turning the bus around for reads
system.mem_ctrls.wrPerTurnAround::17               11      0.14%     98.00% # Writes before turning the bus around for reads
system.mem_ctrls.wrPerTurnAround::18              122      1.51%     99.52% # Writes before turning the bus around for reads
system.mem_ctrls.wrPerTurnAround::19               14      0.17%     99.69% # Writes before turning the bus around for reads
system.mem_ctrls.wrPerTurnAround::20                5      0.06%     99.75% # Writes before turning the bus around for reads
system.mem_ctrls.wrPerTurnAround::22                4      0.05%     99.80% # Writes before turning the bus around for reads
system.mem_ctrls.wrPerTurnAround::23                1      0.01%     99.81% # Writes before turning the bus around for reads
system.mem_ctrls.wrPerTurnAround::24                1      0.01%     99.83% # Writes before turning the bus around for reads
system.mem_ctrls.wrPerTurnAround::25                1      0.01%     99.84% # Writes before turning the bus around for reads
system.mem_ctrls.wrPerTurnAround::26                3      0.04%     99.88% # Writes before turning the bus around for reads
system.mem_ctrls.wrPerTurnAround::27                1      0.01%     99.89% # Writes before turning the bus around for reads
system.mem_ctrls.wrPerTurnAround::28                1      0.01%     99.90% # Writes before turning the bus around for reads
system.mem_ctrls.wrPerTurnAround::29                1      0.01%     99.91% # Writes before turning the bus around for reads
system.mem_ctrls.wrPerTurnAround::30                5      0.06%     99.98% # Writes before turning the bus around for reads
system.mem_ctrls.wrPerTurnAround::32                1      0.01%     99.99% # Writes before turning the bus around for reads
system.mem_ctrls.wrPerTurnAround::38                1      0.01%    100.00% # Writes before turning the bus around for reads
system.mem_ctrls.wrPerTurnAround::total          8063                       # Writes before turning the bus around for reads
system.mem_ctrls.totQLat                  30469399238                       # Total ticks spent queuing
system.mem_ctrls.totMemAccLat             35863174238                       # Total ticks spent from burst creation until serviced by the DRAM
system.mem_ctrls.totBusLat                 1438340000                       # Total ticks spent in databus transfers
system.mem_ctrls.avgQLat                    105918.63                       # Average queueing delay per DRAM burst
system.mem_ctrls.avgBusLat                    5000.00                       # Average bus latency per DRAM burst
system.mem_ctrls.avgMemAccLat               124668.63                       # Average memory access latency per DRAM burst
system.mem_ctrls.avgRdBW                      1662.17                       # Average DRAM read bandwidth in MiByte/s
system.mem_ctrls.avgWrBW                       748.53                       # Average achieved write bandwidth in MiByte/s
system.mem_ctrls.avgRdBWSys                   1706.64                       # Average system read bandwidth in MiByte/s
system.mem_ctrls.avgWrBWSys                    782.33                       # Average system write bandwidth in MiByte/s
system.mem_ctrls.peakBW                      12800.00                       # Theoretical peak bandwidth in MiByte/s
system.mem_ctrls.busUtil                        18.83                       # Data bus utilization in percentage
system.mem_ctrls.busUtilRead                    12.99                       # Data bus utilization in percentage for reads
system.mem_ctrls.busUtilWrite                    5.85                       # Data bus utilization in percentage for writes
system.mem_ctrls.avgRdQLen                       5.07                       # Average read queue length when enqueuing
system.mem_ctrls.avgWrQLen                      28.04                       # Average write queue length when enqueuing
system.mem_ctrls.readRowHits                   239906                       # Number of row buffer hits during reads
system.mem_ctrls.writeRowHits                  118905                       # Number of row buffer hits during writes
system.mem_ctrls.readRowHitRate                 83.40                       # Row buffer hit rate for reads
system.mem_ctrls.writeRowHitRate                91.77                       # Row buffer hit rate for writes
system.mem_ctrls.avgGap                      51426.61                       # Average gap between requests
system.mem_ctrls.pageHitRate                    86.00                       # Row buffer hit rate, read and write combined
system.mem_ctrls_0.actEnergy                229506480                       # Energy for activate commands per rank (pJ)
system.mem_ctrls_0.preEnergy                125226750                       # Energy for precharge commands per rank (pJ)
system.mem_ctrls_0.readEnergy              1159485600                       # Energy for read commands per rank (pJ)
system.mem_ctrls_0.writeEnergy              418782960                       # Energy for write commands per rank (pJ)
system.mem_ctrls_0.refreshEnergy            723172320                       # Energy for refresh commands per rank (pJ)
system.mem_ctrls_0.actBackEnergy           5711942070                       # Energy for active background per rank (pJ)
system.mem_ctrls_0.preBackEnergy           1632909000                       # Energy for precharge background per rank (pJ)
system.mem_ctrls_0.totalEnergy            10001025180                       # Total energy per rank (pJ)
system.mem_ctrls_0.averagePower            903.246697                       # Core power per rank (mW)
system.mem_ctrls_0.memoryStateTime::IDLE   2661438751                       # Time in different power states
system.mem_ctrls_0.memoryStateTime::REF     369720000                       # Time in different power states
system.mem_ctrls_0.memoryStateTime::PRE_PDN            0                       # Time in different power states
system.mem_ctrls_0.memoryStateTime::ACT    8041252249                       # Time in different power states
system.mem_ctrls_0.memoryStateTime::ACT_PDN            0                       # Time in different power states
system.mem_ctrls_1.actEnergy                211921920                       # Energy for activate commands per rank (pJ)
system.mem_ctrls_1.preEnergy                115632000                       # Energy for precharge commands per rank (pJ)
system.mem_ctrls_1.readEnergy              1083872400                       # Energy for read commands per rank (pJ)
system.mem_ctrls_1.writeEnergy              420681600                       # Energy for write commands per rank (pJ)
system.mem_ctrls_1.refreshEnergy            723172320                       # Energy for refresh commands per rank (pJ)
system.mem_ctrls_1.actBackEnergy           5171963400                       # Energy for active background per rank (pJ)
system.mem_ctrls_1.preBackEnergy           2106574500                       # Energy for precharge background per rank (pJ)
system.mem_ctrls_1.totalEnergy             9833818140                       # Total energy per rank (pJ)
system.mem_ctrls_1.averagePower            888.145325                       # Core power per rank (mW)
system.mem_ctrls_1.memoryStateTime::IDLE   3457595751                       # Time in different power states
system.mem_ctrls_1.memoryStateTime::REF     369720000                       # Time in different power states
system.mem_ctrls_1.memoryStateTime::PRE_PDN            0                       # Time in different power states
system.mem_ctrls_1.memoryStateTime::ACT    7245005499                       # Time in different power states
system.mem_ctrls_1.memoryStateTime::ACT_PDN            0                       # Time in different power states
system.ruby_clk_domain.clock                      500                       # Clock period in ticks
system.ruby.phys_mem.bytes_read::cpu0.inst     41693112                       # Number of bytes read from this memory
system.ruby.phys_mem.bytes_read::cpu0.data      4655331                       # Number of bytes read from this memory
system.ruby.phys_mem.bytes_read::gpu.ce       3158028                       # Number of bytes read from this memory
system.ruby.phys_mem.bytes_read::gpu.shader_cores0.data       610304                       # Number of bytes read from this memory
system.ruby.phys_mem.bytes_read::gpu.shader_cores0.inst          576                       # Number of bytes read from this memory
system.ruby.phys_mem.bytes_read::gpu.shader_cores1.data       610304                       # Number of bytes read from this memory
system.ruby.phys_mem.bytes_read::gpu.shader_cores1.inst          576                       # Number of bytes read from this memory
system.ruby.phys_mem.bytes_read::gpu.shader_cores2.data       610304                       # Number of bytes read from this memory
system.ruby.phys_mem.bytes_read::gpu.shader_cores2.inst          576                       # Number of bytes read from this memory
system.ruby.phys_mem.bytes_read::gpu.shader_cores3.data       610304                       # Number of bytes read from this memory
system.ruby.phys_mem.bytes_read::gpu.shader_cores3.inst          576                       # Number of bytes read from this memory
system.ruby.phys_mem.bytes_read::total       51949991                       # Number of bytes read from this memory
system.ruby.phys_mem.bytes_inst_read::cpu0.inst     41693112                       # Number of instructions bytes read from this memory
system.ruby.phys_mem.bytes_inst_read::gpu.shader_cores0.inst          576                       # Number of instructions bytes read from this memory
system.ruby.phys_mem.bytes_inst_read::gpu.shader_cores1.inst          576                       # Number of instructions bytes read from this memory
system.ruby.phys_mem.bytes_inst_read::gpu.shader_cores2.inst          576                       # Number of instructions bytes read from this memory
system.ruby.phys_mem.bytes_inst_read::gpu.shader_cores3.inst          576                       # Number of instructions bytes read from this memory
system.ruby.phys_mem.bytes_inst_read::total     41695416                       # Number of instructions bytes read from this memory
system.ruby.phys_mem.bytes_written::cpu0.data      3133170                       # Number of bytes written to this memory
system.ruby.phys_mem.bytes_written::gpu.ce      3158028                       # Number of bytes written to this memory
system.ruby.phys_mem.bytes_written::gpu.shader_cores0.data       262144                       # Number of bytes written to this memory
system.ruby.phys_mem.bytes_written::gpu.shader_cores1.data       262144                       # Number of bytes written to this memory
system.ruby.phys_mem.bytes_written::gpu.shader_cores2.data       262144                       # Number of bytes written to this memory
system.ruby.phys_mem.bytes_written::gpu.shader_cores3.data       262144                       # Number of bytes written to this memory
system.ruby.phys_mem.bytes_written::total      7339774                       # Number of bytes written to this memory
system.ruby.phys_mem.num_reads::cpu0.inst      5211639                       # Number of read requests responded to by this memory
system.ruby.phys_mem.num_reads::cpu0.data      1040325                       # Number of read requests responded to by this memory
system.ruby.phys_mem.num_reads::gpu.ce          24675                       # Number of read requests responded to by this memory
system.ruby.phys_mem.num_reads::gpu.shader_cores0.data        10752                       # Number of read requests responded to by this memory
system.ruby.phys_mem.num_reads::gpu.shader_cores0.inst           36                       # Number of read requests responded to by this memory
system.ruby.phys_mem.num_reads::gpu.shader_cores1.data        10752                       # Number of read requests responded to by this memory
system.ruby.phys_mem.num_reads::gpu.shader_cores1.inst           36                       # Number of read requests responded to by this memory
system.ruby.phys_mem.num_reads::gpu.shader_cores2.data        10752                       # Number of read requests responded to by this memory
system.ruby.phys_mem.num_reads::gpu.shader_cores2.inst           36                       # Number of read requests responded to by this memory
system.ruby.phys_mem.num_reads::gpu.shader_cores3.data        10752                       # Number of read requests responded to by this memory
system.ruby.phys_mem.num_reads::gpu.shader_cores3.inst           36                       # Number of read requests responded to by this memory
system.ruby.phys_mem.num_reads::total         6319791                       # Number of read requests responded to by this memory
system.ruby.phys_mem.num_writes::cpu0.data       562240                       # Number of write requests responded to by this memory
system.ruby.phys_mem.num_writes::gpu.ce         24675                       # Number of write requests responded to by this memory
system.ruby.phys_mem.num_writes::gpu.shader_cores0.data         6016                       # Number of write requests responded to by this memory
system.ruby.phys_mem.num_writes::gpu.shader_cores1.data         6016                       # Number of write requests responded to by this memory
system.ruby.phys_mem.num_writes::gpu.shader_cores2.data         6016                       # Number of write requests responded to by this memory
system.ruby.phys_mem.num_writes::gpu.shader_cores3.data         6016                       # Number of write requests responded to by this memory
system.ruby.phys_mem.num_writes::total         610979                       # Number of write requests responded to by this memory
system.ruby.phys_mem.bw_read::cpu0.inst    3764163549                       # Total read bandwidth from this memory (bytes/s)
system.ruby.phys_mem.bw_read::cpu0.data     420295498                       # Total read bandwidth from this memory (bytes/s)
system.ruby.phys_mem.bw_read::gpu.ce        285115054                       # Total read bandwidth from this memory (bytes/s)
system.ruby.phys_mem.bw_read::gpu.shader_cores0.data     55099846                       # Total read bandwidth from this memory (bytes/s)
system.ruby.phys_mem.bw_read::gpu.shader_cores0.inst        52003                       # Total read bandwidth from this memory (bytes/s)
system.ruby.phys_mem.bw_read::gpu.shader_cores1.data     55099846                       # Total read bandwidth from this memory (bytes/s)
system.ruby.phys_mem.bw_read::gpu.shader_cores1.inst        52003                       # Total read bandwidth from this memory (bytes/s)
system.ruby.phys_mem.bw_read::gpu.shader_cores2.data     55099846                       # Total read bandwidth from this memory (bytes/s)
system.ruby.phys_mem.bw_read::gpu.shader_cores2.inst        52003                       # Total read bandwidth from this memory (bytes/s)
system.ruby.phys_mem.bw_read::gpu.shader_cores3.data     55099846                       # Total read bandwidth from this memory (bytes/s)
system.ruby.phys_mem.bw_read::gpu.shader_cores3.inst        52003                       # Total read bandwidth from this memory (bytes/s)
system.ruby.phys_mem.bw_read::total        4690181498                       # Total read bandwidth from this memory (bytes/s)
system.ruby.phys_mem.bw_inst_read::cpu0.inst   3764163549                       # Instruction read bandwidth from this memory (bytes/s)
system.ruby.phys_mem.bw_inst_read::gpu.shader_cores0.inst        52003                       # Instruction read bandwidth from this memory (bytes/s)
system.ruby.phys_mem.bw_inst_read::gpu.shader_cores1.inst        52003                       # Instruction read bandwidth from this memory (bytes/s)
system.ruby.phys_mem.bw_inst_read::gpu.shader_cores2.inst        52003                       # Instruction read bandwidth from this memory (bytes/s)
system.ruby.phys_mem.bw_inst_read::gpu.shader_cores3.inst        52003                       # Instruction read bandwidth from this memory (bytes/s)
system.ruby.phys_mem.bw_inst_read::total   3764371560                       # Instruction read bandwidth from this memory (bytes/s)
system.ruby.phys_mem.bw_write::cpu0.data    282870809                       # Write bandwidth from this memory (bytes/s)
system.ruby.phys_mem.bw_write::gpu.ce       285115054                       # Write bandwidth from this memory (bytes/s)
system.ruby.phys_mem.bw_write::gpu.shader_cores0.data     23667048                       # Write bandwidth from this memory (bytes/s)
system.ruby.phys_mem.bw_write::gpu.shader_cores1.data     23667048                       # Write bandwidth from this memory (bytes/s)
system.ruby.phys_mem.bw_write::gpu.shader_cores2.data     23667048                       # Write bandwidth from this memory (bytes/s)
system.ruby.phys_mem.bw_write::gpu.shader_cores3.data     23667048                       # Write bandwidth from this memory (bytes/s)
system.ruby.phys_mem.bw_write::total        662654055                       # Write bandwidth from this memory (bytes/s)
system.ruby.phys_mem.bw_total::cpu0.inst   3764163549                       # Total bandwidth to/from this memory (bytes/s)
system.ruby.phys_mem.bw_total::cpu0.data    703166306                       # Total bandwidth to/from this memory (bytes/s)
system.ruby.phys_mem.bw_total::gpu.ce       570230108                       # Total bandwidth to/from this memory (bytes/s)
system.ruby.phys_mem.bw_total::gpu.shader_cores0.data     78766895                       # Total bandwidth to/from this memory (bytes/s)
system.ruby.phys_mem.bw_total::gpu.shader_cores0.inst        52003                       # Total bandwidth to/from this memory (bytes/s)
system.ruby.phys_mem.bw_total::gpu.shader_cores1.data     78766895                       # Total bandwidth to/from this memory (bytes/s)
system.ruby.phys_mem.bw_total::gpu.shader_cores1.inst        52003                       # Total bandwidth to/from this memory (bytes/s)
system.ruby.phys_mem.bw_total::gpu.shader_cores2.data     78766895                       # Total bandwidth to/from this memory (bytes/s)
system.ruby.phys_mem.bw_total::gpu.shader_cores2.inst        52003                       # Total bandwidth to/from this memory (bytes/s)
system.ruby.phys_mem.bw_total::gpu.shader_cores3.data     78766895                       # Total bandwidth to/from this memory (bytes/s)
system.ruby.phys_mem.bw_total::gpu.shader_cores3.inst        52003                       # Total bandwidth to/from this memory (bytes/s)
system.ruby.phys_mem.bw_total::total       5352835554                       # Total bandwidth to/from this memory (bytes/s)
system.cpu_voltage_domain.voltage                   1                       # Voltage in Volts
system.cpu_clk_domain.clock                       500                       # Clock period in ticks
system.cpu0.apic_clk_domain.clock                8000                       # Clock period in ticks
system.cpu0.workload.num_syscalls                  35                       # Number of system calls
system.cpu0.numCycles                        22152657                       # number of cpu cycles simulated
system.cpu0.numWorkItemsStarted                     2                       # number of work items this cpu started
system.cpu0.numWorkItemsCompleted                   2                       # number of work items this cpu completed
system.cpu0.committedInsts                    4005682                       # Number of instructions committed
system.cpu0.committedOps                      6923930                       # Number of ops (including micro ops) committed
system.cpu0.num_int_alu_accesses              6892765                       # Number of integer alu accesses
system.cpu0.num_fp_alu_accesses                161011                       # Number of float alu accesses
system.cpu0.num_func_calls                      44761                       # number of times a function call or return occured
system.cpu0.num_conditional_control_insts       495007                       # number of instructions that are conditional controls
system.cpu0.num_int_insts                     6892765                       # number of integer instructions
system.cpu0.num_fp_insts                       161011                       # number of float instructions
system.cpu0.num_int_register_reads           13142048                       # number of times the integer registers were read
system.cpu0.num_int_register_writes           5777264                       # number of times the integer registers were written
system.cpu0.num_fp_register_reads              186083                       # number of times the floating registers were read
system.cpu0.num_fp_register_writes              27431                       # number of times the floating registers were written
system.cpu0.num_cc_register_reads             2888581                       # number of times the CC registers were read
system.cpu0.num_cc_register_writes            2649476                       # number of times the CC registers were written
system.cpu0.num_mem_refs                      1602558                       # number of memory refs
system.cpu0.num_load_insts                    1040319                       # Number of load instructions
system.cpu0.num_store_insts                    562239                       # Number of store instructions
system.cpu0.num_idle_cycles              2186547.007803                       # Number of idle cycles
system.cpu0.num_busy_cycles              19966109.992197                       # Number of busy cycles
system.cpu0.not_idle_fraction                0.901296                       # Percentage of non-idle cycles
system.cpu0.idle_fraction                    0.098704                       # Percentage of idle cycles
system.cpu0.Branches                           554274                       # Number of branches fetched
system.cpu0.op_class::No_OpClass                 6399      0.09%      0.09% # Class of executed instruction
system.cpu0.op_class::IntAlu                  5288526     76.38%     76.47% # Class of executed instruction
system.cpu0.op_class::IntMult                    3087      0.04%     76.52% # Class of executed instruction
system.cpu0.op_class::IntDiv                      279      0.00%     76.52% # Class of executed instruction
system.cpu0.op_class::FloatAdd                  23081      0.33%     76.85% # Class of executed instruction
system.cpu0.op_class::FloatCmp                      0      0.00%     76.85% # Class of executed instruction
system.cpu0.op_class::FloatCvt                      0      0.00%     76.85% # Class of executed instruction
system.cpu0.op_class::FloatMult                     0      0.00%     76.85% # Class of executed instruction
system.cpu0.op_class::FloatDiv                      0      0.00%     76.85% # Class of executed instruction
system.cpu0.op_class::FloatSqrt                     0      0.00%     76.85% # Class of executed instruction
system.cpu0.op_class::SimdAdd                       0      0.00%     76.85% # Class of executed instruction
system.cpu0.op_class::SimdAddAcc                    0      0.00%     76.85% # Class of executed instruction
system.cpu0.op_class::SimdAlu                       0      0.00%     76.85% # Class of executed instruction
system.cpu0.op_class::SimdCmp                       0      0.00%     76.85% # Class of executed instruction
system.cpu0.op_class::SimdCvt                       0      0.00%     76.85% # Class of executed instruction
system.cpu0.op_class::SimdMisc                      0      0.00%     76.85% # Class of executed instruction
system.cpu0.op_class::SimdMult                      0      0.00%     76.85% # Class of executed instruction
system.cpu0.op_class::SimdMultAcc                   0      0.00%     76.85% # Class of executed instruction
system.cpu0.op_class::SimdShift                     0      0.00%     76.85% # Class of executed instruction
system.cpu0.op_class::SimdShiftAcc                  0      0.00%     76.85% # Class of executed instruction
system.cpu0.op_class::SimdSqrt                      0      0.00%     76.85% # Class of executed instruction
system.cpu0.op_class::SimdFloatAdd                  0      0.00%     76.85% # Class of executed instruction
system.cpu0.op_class::SimdFloatAlu                  0      0.00%     76.85% # Class of executed instruction
system.cpu0.op_class::SimdFloatCmp                  0      0.00%     76.85% # Class of executed instruction
system.cpu0.op_class::SimdFloatCvt                  0      0.00%     76.85% # Class of executed instruction
system.cpu0.op_class::SimdFloatDiv                  0      0.00%     76.85% # Class of executed instruction
system.cpu0.op_class::SimdFloatMisc                 0      0.00%     76.85% # Class of executed instruction
system.cpu0.op_class::SimdFloatMult                 0      0.00%     76.85% # Class of executed instruction
system.cpu0.op_class::SimdFloatMultAcc              0      0.00%     76.85% # Class of executed instruction
system.cpu0.op_class::SimdFloatSqrt                 0      0.00%     76.85% # Class of executed instruction
system.cpu0.op_class::MemRead                 1040319     15.02%     91.88% # Class of executed instruction
system.cpu0.op_class::MemWrite                 562239      8.12%    100.00% # Class of executed instruction
system.cpu0.op_class::IprAccess                     0      0.00%    100.00% # Class of executed instruction
system.cpu0.op_class::InstPrefetch                  0      0.00%    100.00% # Class of executed instruction
system.cpu0.op_class::total                   6923930                       # Class of executed instruction
system.cpu1.apic_clk_domain.clock                8000                       # Clock period in ticks
system.cpu1.numCycles                               0                       # number of cpu cycles simulated
system.cpu1.numWorkItemsStarted                     0                       # number of work items this cpu started
system.cpu1.numWorkItemsCompleted                   0                       # number of work items this cpu completed
system.cpu1.committedInsts                          0                       # Number of instructions committed
system.cpu1.committedOps                            0                       # Number of ops (including micro ops) committed
system.cpu1.num_int_alu_accesses                    0                       # Number of integer alu accesses
system.cpu1.num_fp_alu_accesses                     0                       # Number of float alu accesses
system.cpu1.num_func_calls                          0                       # number of times a function call or return occured
system.cpu1.num_conditional_control_insts            0                       # number of instructions that are conditional controls
system.cpu1.num_int_insts                           0                       # number of integer instructions
system.cpu1.num_fp_insts                            0                       # number of float instructions
system.cpu1.num_int_register_reads                  0                       # number of times the integer registers were read
system.cpu1.num_int_register_writes                 0                       # number of times the integer registers were written
system.cpu1.num_fp_register_reads                   0                       # number of times the floating registers were read
system.cpu1.num_fp_register_writes                  0                       # number of times the floating registers were written
system.cpu1.num_mem_refs                            0                       # number of memory refs
system.cpu1.num_load_insts                          0                       # Number of load instructions
system.cpu1.num_store_insts                         0                       # Number of store instructions
system.cpu1.num_idle_cycles                         0                       # Number of idle cycles
system.cpu1.num_busy_cycles                         0                       # Number of busy cycles
system.cpu1.not_idle_fraction                       0                       # Percentage of non-idle cycles
system.cpu1.idle_fraction                           1                       # Percentage of idle cycles
system.cpu1.op_class::No_OpClass                    0                       # Class of executed instruction
system.cpu1.op_class::IntAlu                        0                       # Class of executed instruction
system.cpu1.op_class::IntMult                       0                       # Class of executed instruction
system.cpu1.op_class::IntDiv                        0                       # Class of executed instruction
system.cpu1.op_class::FloatAdd                      0                       # Class of executed instruction
system.cpu1.op_class::FloatCmp                      0                       # Class of executed instruction
system.cpu1.op_class::FloatCvt                      0                       # Class of executed instruction
system.cpu1.op_class::FloatMult                     0                       # Class of executed instruction
system.cpu1.op_class::FloatDiv                      0                       # Class of executed instruction
system.cpu1.op_class::FloatSqrt                     0                       # Class of executed instruction
system.cpu1.op_class::SimdAdd                       0                       # Class of executed instruction
system.cpu1.op_class::SimdAddAcc                    0                       # Class of executed instruction
system.cpu1.op_class::SimdAlu                       0                       # Class of executed instruction
system.cpu1.op_class::SimdCmp                       0                       # Class of executed instruction
system.cpu1.op_class::SimdCvt                       0                       # Class of executed instruction
system.cpu1.op_class::SimdMisc                      0                       # Class of executed instruction
system.cpu1.op_class::SimdMult                      0                       # Class of executed instruction
system.cpu1.op_class::SimdMultAcc                   0                       # Class of executed instruction
system.cpu1.op_class::SimdShift                     0                       # Class of executed instruction
system.cpu1.op_class::SimdShiftAcc                  0                       # Class of executed instruction
system.cpu1.op_class::SimdSqrt                      0                       # Class of executed instruction
system.cpu1.op_class::SimdFloatAdd                  0                       # Class of executed instruction
system.cpu1.op_class::SimdFloatAlu                  0                       # Class of executed instruction
system.cpu1.op_class::SimdFloatCmp                  0                       # Class of executed instruction
system.cpu1.op_class::SimdFloatCvt                  0                       # Class of executed instruction
system.cpu1.op_class::SimdFloatDiv                  0                       # Class of executed instruction
system.cpu1.op_class::SimdFloatMisc                 0                       # Class of executed instruction
system.cpu1.op_class::SimdFloatMult                 0                       # Class of executed instruction
system.cpu1.op_class::SimdFloatMultAcc              0                       # Class of executed instruction
system.cpu1.op_class::SimdFloatSqrt                 0                       # Class of executed instruction
system.cpu1.op_class::MemRead                       0                       # Class of executed instruction
system.cpu1.op_class::MemWrite                      0                       # Class of executed instruction
system.cpu1.op_class::IprAccess                     0                       # Class of executed instruction
system.cpu1.op_class::InstPrefetch                  0                       # Class of executed instruction
system.cpu1.op_class::total                         0                       # Class of executed instruction
system.gpu.clk_domain.voltage_domain.voltage            1                       # Voltage in Volts
system.gpu.clk_domain.clock                      1429                       # Clock period in ticks
system.gpu.dram_wrapper.clk_domain.clock          541                       # Clock period in ticks
system.gpu.icnt_wrapper.clk_domain.clock         2858                       # Clock period in ticks
system.ruby.delayHist::bucket_size                 64                       # delay histogram for all message
system.ruby.delayHist::max_bucket                 639                       # delay histogram for all message
system.ruby.delayHist::samples                1042297                       # delay histogram for all message
system.ruby.delayHist::mean                  3.514187                       # delay histogram for all message
system.ruby.delayHist::stdev                10.555327                       # delay histogram for all message
system.ruby.delayHist                    |     1037558     99.55%     99.55% |        3760      0.36%     99.91% |         738      0.07%     99.98% |         180      0.02%     99.99% |          49      0.00%    100.00% |          10      0.00%    100.00% |           2      0.00%    100.00% |           0      0.00%    100.00% |           0      0.00%    100.00% |           0      0.00%    100.00% # delay histogram for all message
system.ruby.delayHist::total                  1042297                       # delay histogram for all message
system.ruby.outstanding_req_hist::bucket_size           16                      
system.ruby.outstanding_req_hist::max_bucket          159                      
system.ruby.outstanding_req_hist::samples      6930770                      
system.ruby.outstanding_req_hist::mean       1.595929                      
system.ruby.outstanding_req_hist::gmean      1.052830                      
system.ruby.outstanding_req_hist::stdev      5.820790                      
system.ruby.outstanding_req_hist         |     6861281     99.00%     99.00% |       11418      0.16%     99.16% |        3289      0.05%     99.21% |        2261      0.03%     99.24% |       50423      0.73%     99.97% |         929      0.01%     99.98% |        1169      0.02%    100.00% |           0      0.00%    100.00% |           0      0.00%    100.00% |           0      0.00%    100.00%
system.ruby.outstanding_req_hist::total       6930770                      
system.ruby.latency_hist::bucket_size            4096                      
system.ruby.latency_hist::max_bucket            40959                      
system.ruby.latency_hist::samples             6930770                      
system.ruby.latency_hist::mean              41.994377                      
system.ruby.latency_hist::gmean              1.154587                      
system.ruby.latency_hist::stdev            477.567039                      
system.ruby.latency_hist                 |     6907380     99.66%     99.66% |       18558      0.27%     99.93% |        2698      0.04%     99.97% |        1630      0.02%     99.99% |         419      0.01%    100.00% |          84      0.00%    100.00% |           1      0.00%    100.00% |           0      0.00%    100.00% |           0      0.00%    100.00% |           0      0.00%    100.00%
system.ruby.latency_hist::total               6930770                      
system.ruby.hit_latency_hist::bucket_size            1                      
system.ruby.hit_latency_hist::max_bucket            9                      
system.ruby.hit_latency_hist::samples         6780024                      
system.ruby.hit_latency_hist::mean                  1                      
system.ruby.hit_latency_hist::gmean                 1                      
system.ruby.hit_latency_hist             |           0      0.00%      0.00% |     6780024    100.00%    100.00% |           0      0.00%    100.00% |           0      0.00%    100.00% |           0      0.00%    100.00% |           0      0.00%    100.00% |           0      0.00%    100.00% |           0      0.00%    100.00% |           0      0.00%    100.00% |           0      0.00%    100.00%
system.ruby.hit_latency_hist::total           6780024                      
system.ruby.miss_latency_hist::bucket_size         4096                      
system.ruby.miss_latency_hist::max_bucket        40959                      
system.ruby.miss_latency_hist::samples         150746                      
system.ruby.miss_latency_hist::mean       1885.777022                      
system.ruby.miss_latency_hist::gmean       741.593544                      
system.ruby.miss_latency_hist::stdev      2647.790333                      
system.ruby.miss_latency_hist            |      127356     84.48%     84.48% |       18558     12.31%     96.79% |        2698      1.79%     98.58% |        1630      1.08%     99.67% |         419      0.28%     99.94% |          84      0.06%    100.00% |           1      0.00%    100.00% |           0      0.00%    100.00% |           0      0.00%    100.00% |           0      0.00%    100.00%
system.ruby.miss_latency_hist::total           150746                      
system.gpu.shader_mmu.numPagefaults                 0                       # Number of Pagefaults
system.gpu.shader_mmu.numPagewalks              11103                       # Number of Pagewalks
system.gpu.shader_mmu.totalRequests             11103                       # Total number of requests
system.gpu.shader_mmu.l2hits                        0                       # Hits in the shared L2
system.gpu.shader_mmu.prefetchHits                  0                       # Number of prefetch hits
system.gpu.shader_mmu.numPrefetches                 0                       # Number of prefetchs
system.gpu.shader_mmu.prefetchFaults                0                       # Number of faults caused by prefetches
system.gpu.shader_mmu.pagefaultLatency::samples            0                       # Latency to complete the pagefault
system.gpu.shader_mmu.pagefaultLatency::mean          nan                       # Latency to complete the pagefault
system.gpu.shader_mmu.pagefaultLatency::gmean          nan                       # Latency to complete the pagefault
system.gpu.shader_mmu.pagefaultLatency::stdev          nan                       # Latency to complete the pagefault
system.gpu.shader_mmu.pagefaultLatency::0            0                       # Latency to complete the pagefault
system.gpu.shader_mmu.pagefaultLatency::1            0                       # Latency to complete the pagefault
system.gpu.shader_mmu.pagefaultLatency::2            0                       # Latency to complete the pagefault
system.gpu.shader_mmu.pagefaultLatency::3            0                       # Latency to complete the pagefault
system.gpu.shader_mmu.pagefaultLatency::4            0                       # Latency to complete the pagefault
system.gpu.shader_mmu.pagefaultLatency::5            0                       # Latency to complete the pagefault
system.gpu.shader_mmu.pagefaultLatency::6            0                       # Latency to complete the pagefault
system.gpu.shader_mmu.pagefaultLatency::7            0                       # Latency to complete the pagefault
system.gpu.shader_mmu.pagefaultLatency::8            0                       # Latency to complete the pagefault
system.gpu.shader_mmu.pagefaultLatency::9            0                       # Latency to complete the pagefault
system.gpu.shader_mmu.pagefaultLatency::10            0                       # Latency to complete the pagefault
system.gpu.shader_mmu.pagefaultLatency::11            0                       # Latency to complete the pagefault
system.gpu.shader_mmu.pagefaultLatency::12            0                       # Latency to complete the pagefault
system.gpu.shader_mmu.pagefaultLatency::13            0                       # Latency to complete the pagefault
system.gpu.shader_mmu.pagefaultLatency::14            0                       # Latency to complete the pagefault
system.gpu.shader_mmu.pagefaultLatency::15            0                       # Latency to complete the pagefault
system.gpu.shader_mmu.pagefaultLatency::16            0                       # Latency to complete the pagefault
system.gpu.shader_mmu.pagefaultLatency::17            0                       # Latency to complete the pagefault
system.gpu.shader_mmu.pagefaultLatency::18            0                       # Latency to complete the pagefault
system.gpu.shader_mmu.pagefaultLatency::19            0                       # Latency to complete the pagefault
system.gpu.shader_mmu.pagefaultLatency::20            0                       # Latency to complete the pagefault
system.gpu.shader_mmu.pagefaultLatency::21            0                       # Latency to complete the pagefault
system.gpu.shader_mmu.pagefaultLatency::22            0                       # Latency to complete the pagefault
system.gpu.shader_mmu.pagefaultLatency::23            0                       # Latency to complete the pagefault
system.gpu.shader_mmu.pagefaultLatency::24            0                       # Latency to complete the pagefault
system.gpu.shader_mmu.pagefaultLatency::25            0                       # Latency to complete the pagefault
system.gpu.shader_mmu.pagefaultLatency::26            0                       # Latency to complete the pagefault
system.gpu.shader_mmu.pagefaultLatency::27            0                       # Latency to complete the pagefault
system.gpu.shader_mmu.pagefaultLatency::28            0                       # Latency to complete the pagefault
system.gpu.shader_mmu.pagefaultLatency::29            0                       # Latency to complete the pagefault
system.gpu.shader_mmu.pagefaultLatency::30            0                       # Latency to complete the pagefault
system.gpu.shader_mmu.pagefaultLatency::31            0                       # Latency to complete the pagefault
system.gpu.shader_mmu.pagefaultLatency::total            0                       # Latency to complete the pagefault
system.gpu.shader_mmu.concurrentWalks::samples        11103                       # Number of outstanding walks
system.gpu.shader_mmu.concurrentWalks::mean            0                       # Number of outstanding walks
system.gpu.shader_mmu.concurrentWalks::gmean            0                       # Number of outstanding walks
system.gpu.shader_mmu.concurrentWalks::stdev            0                       # Number of outstanding walks
system.gpu.shader_mmu.concurrentWalks::0        11103    100.00%    100.00% # Number of outstanding walks
system.gpu.shader_mmu.concurrentWalks::1            0      0.00%    100.00% # Number of outstanding walks
system.gpu.shader_mmu.concurrentWalks::2            0      0.00%    100.00% # Number of outstanding walks
system.gpu.shader_mmu.concurrentWalks::3            0      0.00%    100.00% # Number of outstanding walks
system.gpu.shader_mmu.concurrentWalks::4            0      0.00%    100.00% # Number of outstanding walks
system.gpu.shader_mmu.concurrentWalks::5            0      0.00%    100.00% # Number of outstanding walks
system.gpu.shader_mmu.concurrentWalks::6            0      0.00%    100.00% # Number of outstanding walks
system.gpu.shader_mmu.concurrentWalks::7            0      0.00%    100.00% # Number of outstanding walks
system.gpu.shader_mmu.concurrentWalks::8            0      0.00%    100.00% # Number of outstanding walks
system.gpu.shader_mmu.concurrentWalks::9            0      0.00%    100.00% # Number of outstanding walks
system.gpu.shader_mmu.concurrentWalks::10            0      0.00%    100.00% # Number of outstanding walks
system.gpu.shader_mmu.concurrentWalks::11            0      0.00%    100.00% # Number of outstanding walks
system.gpu.shader_mmu.concurrentWalks::12            0      0.00%    100.00% # Number of outstanding walks
system.gpu.shader_mmu.concurrentWalks::13            0      0.00%    100.00% # Number of outstanding walks
system.gpu.shader_mmu.concurrentWalks::14            0      0.00%    100.00% # Number of outstanding walks
system.gpu.shader_mmu.concurrentWalks::15            0      0.00%    100.00% # Number of outstanding walks
system.gpu.shader_mmu.concurrentWalks::total        11103                       # Number of outstanding walks
system.gpu.shader_mmu.pagewalkLatency::samples        11103                       # Latency to complete the pagewalk
system.gpu.shader_mmu.pagewalkLatency::mean            0                       # Latency to complete the pagewalk
system.gpu.shader_mmu.pagewalkLatency::gmean            0                       # Latency to complete the pagewalk
system.gpu.shader_mmu.pagewalkLatency::stdev            0                       # Latency to complete the pagewalk
system.gpu.shader_mmu.pagewalkLatency::0        11103    100.00%    100.00% # Latency to complete the pagewalk
system.gpu.shader_mmu.pagewalkLatency::1            0      0.00%    100.00% # Latency to complete the pagewalk
system.gpu.shader_mmu.pagewalkLatency::2            0      0.00%    100.00% # Latency to complete the pagewalk
system.gpu.shader_mmu.pagewalkLatency::3            0      0.00%    100.00% # Latency to complete the pagewalk
system.gpu.shader_mmu.pagewalkLatency::4            0      0.00%    100.00% # Latency to complete the pagewalk
system.gpu.shader_mmu.pagewalkLatency::5            0      0.00%    100.00% # Latency to complete the pagewalk
system.gpu.shader_mmu.pagewalkLatency::6            0      0.00%    100.00% # Latency to complete the pagewalk
system.gpu.shader_mmu.pagewalkLatency::7            0      0.00%    100.00% # Latency to complete the pagewalk
system.gpu.shader_mmu.pagewalkLatency::8            0      0.00%    100.00% # Latency to complete the pagewalk
system.gpu.shader_mmu.pagewalkLatency::9            0      0.00%    100.00% # Latency to complete the pagewalk
system.gpu.shader_mmu.pagewalkLatency::10            0      0.00%    100.00% # Latency to complete the pagewalk
system.gpu.shader_mmu.pagewalkLatency::11            0      0.00%    100.00% # Latency to complete the pagewalk
system.gpu.shader_mmu.pagewalkLatency::12            0      0.00%    100.00% # Latency to complete the pagewalk
system.gpu.shader_mmu.pagewalkLatency::13            0      0.00%    100.00% # Latency to complete the pagewalk
system.gpu.shader_mmu.pagewalkLatency::14            0      0.00%    100.00% # Latency to complete the pagewalk
system.gpu.shader_mmu.pagewalkLatency::15            0      0.00%    100.00% # Latency to complete the pagewalk
system.gpu.shader_mmu.pagewalkLatency::16            0      0.00%    100.00% # Latency to complete the pagewalk
system.gpu.shader_mmu.pagewalkLatency::17            0      0.00%    100.00% # Latency to complete the pagewalk
system.gpu.shader_mmu.pagewalkLatency::18            0      0.00%    100.00% # Latency to complete the pagewalk
system.gpu.shader_mmu.pagewalkLatency::19            0      0.00%    100.00% # Latency to complete the pagewalk
system.gpu.shader_mmu.pagewalkLatency::20            0      0.00%    100.00% # Latency to complete the pagewalk
system.gpu.shader_mmu.pagewalkLatency::21            0      0.00%    100.00% # Latency to complete the pagewalk
system.gpu.shader_mmu.pagewalkLatency::22            0      0.00%    100.00% # Latency to complete the pagewalk
system.gpu.shader_mmu.pagewalkLatency::23            0      0.00%    100.00% # Latency to complete the pagewalk
system.gpu.shader_mmu.pagewalkLatency::24            0      0.00%    100.00% # Latency to complete the pagewalk
system.gpu.shader_mmu.pagewalkLatency::25            0      0.00%    100.00% # Latency to complete the pagewalk
system.gpu.shader_mmu.pagewalkLatency::26            0      0.00%    100.00% # Latency to complete the pagewalk
system.gpu.shader_mmu.pagewalkLatency::27            0      0.00%    100.00% # Latency to complete the pagewalk
system.gpu.shader_mmu.pagewalkLatency::28            0      0.00%    100.00% # Latency to complete the pagewalk
system.gpu.shader_mmu.pagewalkLatency::29            0      0.00%    100.00% # Latency to complete the pagewalk
system.gpu.shader_mmu.pagewalkLatency::30            0      0.00%    100.00% # Latency to complete the pagewalk
system.gpu.shader_mmu.pagewalkLatency::31            0      0.00%    100.00% # Latency to complete the pagewalk
system.gpu.shader_mmu.pagewalkLatency::total        11103                       # Latency to complete the pagewalk
system.gpu.kernels_started                         63                       # Number of kernels started
system.gpu.kernels_completed                       63                       # Number of kernels completed
system.gpu.ce.device_dtb.hits                       0                       # Number of hits in this TLB
system.gpu.ce.device_dtb.misses                     0                       # Number of misses in this TLB
system.gpu.ce.device_dtb.hitRate                  nan                       # Hit rate for this TLB
system.gpu.ce.host_dtb.hits                     13572                       # Number of hits in this TLB
system.gpu.ce.host_dtb.misses                   11103                       # Number of misses in this TLB
system.gpu.ce.host_dtb.hitRate               0.550030                       # Hit rate for this TLB
system.gpu.ce.numOperations                         3                       # Number of copy/memset operations
system.gpu.ce.opBytesRead                     3158028                       # Number of copy bytes read
system.gpu.ce.opBytesWritten                  3158028                       # Number of copy/memset bytes written
system.gpu.ce.opTimeTicks                  1111528038                       # Total time spent in copy/memset operations
system.gpu.shader_cores0.itb.hits                   0                       # Number of hits in this TLB
system.gpu.shader_cores0.itb.misses                 0                       # Number of misses in this TLB
system.gpu.shader_cores0.itb.hitRate              nan                       # Hit rate for this TLB
system.gpu.shader_cores0.local_loads                0                       # Number of loads from local space
system.gpu.shader_cores0.local_stores               0                       # Number of stores to local space
system.gpu.shader_cores0.shared_loads          327680                       # Number of loads from shared space
system.gpu.shader_cores0.shared_stores         139520                       # Number of stores to shared space
system.gpu.shader_cores0.param_kernel_loads        83904                       # Number of loads from kernel parameter space
system.gpu.shader_cores0.param_local_loads            0                       # Number of loads from local parameter space
system.gpu.shader_cores0.param_local_stores            0                       # Number of stores to local parameter space
system.gpu.shader_cores0.const_loads                0                       # Number of loads from constant space
system.gpu.shader_cores0.tex_loads                  0                       # Number of loads from texture space
system.gpu.shader_cores0.global_loads           73984                       # Number of loads from global space
system.gpu.shader_cores0.global_stores          65536                       # Number of stores to global space
system.gpu.shader_cores0.surf_loads                 0                       # Number of loads from surface space
system.gpu.shader_cores0.generic_loads              0                       # Number of loads from generic spaces (global, shared, local)
system.gpu.shader_cores0.generic_stores             0                       # Number of stores to generic spaces (global, shared, local)
system.gpu.shader_cores0.inst_cache_requests           36                       # Number of instruction cache requests sent
system.gpu.shader_cores0.inst_cache_retries            0                       # Number of instruction cache retries
system.gpu.shader_cores0.inst_counts::0             0                       # Inst counts: 1: ALU, 2: MAD, 3: CTRL, 4: SFU, 5: MEM, 6: TEX, 7: NOP
system.gpu.shader_cores0.inst_counts::1       2222720                       # Inst counts: 1: ALU, 2: MAD, 3: CTRL, 4: SFU, 5: MEM, 6: TEX, 7: NOP
system.gpu.shader_cores0.inst_counts::2             0                       # Inst counts: 1: ALU, 2: MAD, 3: CTRL, 4: SFU, 5: MEM, 6: TEX, 7: NOP
system.gpu.shader_cores0.inst_counts::3        392960                       # Inst counts: 1: ALU, 2: MAD, 3: CTRL, 4: SFU, 5: MEM, 6: TEX, 7: NOP
system.gpu.shader_cores0.inst_counts::4             0                       # Inst counts: 1: ALU, 2: MAD, 3: CTRL, 4: SFU, 5: MEM, 6: TEX, 7: NOP
[...]
system.ruby.L1Cache_Controller.Data_all_Acks::total        74345                      
system.ruby.L1Cache_Controller.WB_Ack    |       20188     29.08%     29.08% |           0      0.00%     29.08% |         225      0.32%     29.40% |         254      0.37%     29.77% |         290      0.42%     30.19% |         344      0.50%     30.68% |           0      0.00%     30.68% |       48127     69.32%    100.00%
system.ruby.L1Cache_Controller.WB_Ack::total        69428                      
system.ruby.L1Cache_Controller.NP.Load   |        4276      5.98%      5.98% |           0      0.00%      5.98% |       10628     14.86%     20.83% |       10634     14.86%     35.70% |       10670     14.91%     50.61% |       10658     14.90%     65.51% |           0      0.00%     65.51% |       24675     34.49%    100.00%
system.ruby.L1Cache_Controller.NP.Load::total        71541                      
system.ruby.L1Cache_Controller.NP.Ifetch |         483     77.03%     77.03% |           0      0.00%     77.03% |          36      5.74%     82.78% |          36      5.74%     88.52% |          36      5.74%     94.26% |          36      5.74%    100.00% |           0      0.00%    100.00% |           0      0.00%    100.00%
system.ruby.L1Cache_Controller.NP.Ifetch::total          627                      
system.ruby.L1Cache_Controller.NP.Store  |       17751     27.29%     27.29% |           0      0.00%     27.29% |        5661      8.70%     35.99% |        5653      8.69%     44.68% |        5654      8.69%     53.37% |        5660      8.70%     62.07% |           0      0.00%     62.07% |       24675     37.93%    100.00%
system.ruby.L1Cache_Controller.NP.Store::total        65054                      
system.ruby.L1Cache_Controller.NP.Inv    |          60    100.00%    100.00% |           0      0.00%    100.00% |           0      0.00%    100.00% |           0      0.00%    100.00% |           0      0.00%    100.00% |           0      0.00%    100.00% |           0      0.00%    100.00% |           0      0.00%    100.00%
system.ruby.L1Cache_Controller.NP.Inv::total           60                      
system.ruby.L1Cache_Controller.I.Load    |        4913     92.25%     92.25% |           0      0.00%     92.25% |         121      2.27%     94.52% |         118      2.22%     96.73% |          82      1.54%     98.27% |          92      1.73%    100.00% |           0      0.00%    100.00% |           0      0.00%    100.00%
system.ruby.L1Cache_Controller.I.Load::total         5326                      
system.ruby.L1Cache_Controller.I.Ifetch  |        3828    100.00%    100.00% |           0      0.00%    100.00% |           0      0.00%    100.00% |           0      0.00%    100.00% |           0      0.00%    100.00% |           0      0.00%    100.00% |           0      0.00%    100.00% |           0      0.00%    100.00%
system.ruby.L1Cache_Controller.I.Ifetch::total         3828                      
system.ruby.L1Cache_Controller.I.Store   |        2955     67.62%     67.62% |           0      0.00%     67.62% |         347      7.94%     75.56% |         350      8.01%     83.57% |         362      8.28%     91.85% |         356      8.15%    100.00% |           0      0.00%    100.00% |           0      0.00%    100.00%
system.ruby.L1Cache_Controller.I.Store::total         4370                      
system.ruby.L1Cache_Controller.I.L1_Replacement |        1584      2.44%      2.44% |           0      0.00%      2.44% |       15552     23.99%     26.44% |       15521     23.94%     50.38% |       15522     23.95%     74.33% |       15462     23.85%     98.18% |           0      0.00%     98.18% |        1180      1.82%    100.00%
system.ruby.L1Cache_Controller.I.L1_Replacement::total        64821                      
system.ruby.L1Cache_Controller.S.Ifetch  |     5207328    100.00%    100.00% |           0      0.00%    100.00% |           0      0.00%    100.00% |           0      0.00%    100.00% |           0      0.00%    100.00% |           0      0.00%    100.00% |           0      0.00%    100.00% |           0      0.00%    100.00%
system.ruby.L1Cache_Controller.S.Ifetch::total      5207328                      
system.ruby.L1Cache_Controller.S.Inv     |        3913     85.57%     85.57% |           0      0.00%     85.57% |         166      3.63%     89.20% |         189      4.13%     93.33% |         163      3.56%     96.89% |         142      3.11%    100.00% |           0      0.00%    100.00% |           0      0.00%    100.00%
system.ruby.L1Cache_Controller.S.Inv::total         4573                      
system.ruby.L1Cache_Controller.S.L1_Replacement |         248     87.63%     87.63% |           0      0.00%     87.63% |           0      0.00%     87.63% |           0      0.00%     87.63% |           0      0.00%     87.63% |           0      0.00%     87.63% |           0      0.00%     87.63% |          35     12.37%    100.00%
system.ruby.L1Cache_Controller.S.L1_Replacement::total          283                      
system.ruby.L1Cache_Controller.E.Load    |      757593    100.00%    100.00% |           0      0.00%    100.00% |           1      0.00%    100.00% |           0      0.00%    100.00% |           0      0.00%    100.00% |           0      0.00%    100.00% |           0      0.00%    100.00% |           0      0.00%    100.00%
system.ruby.L1Cache_Controller.E.Load::total       757594                      
system.ruby.L1Cache_Controller.E.Store   |         168     88.89%     88.89% |           0      0.00%     88.89% |           8      4.23%     93.12% |          13      6.88%    100.00% |           0      0.00%    100.00% |           0      0.00%    100.00% |           0      0.00%    100.00% |           0      0.00%    100.00%
system.ruby.L1Cache_Controller.E.Store::total          189                      
system.ruby.L1Cache_Controller.E.Inv     |        5790     12.04%     12.04% |           0      0.00%     12.04% |       10537     21.92%     33.96% |       10484     21.81%     55.77% |       10517     21.88%     77.65% |       10517     21.88%     99.53% |           0      0.00%     99.53% |         228      0.47%    100.00%
system.ruby.L1Cache_Controller.E.Inv::total        48073                      
system.ruby.L1Cache_Controller.E.L1_Replacement |        3065     11.00%     11.00% |           0      0.00%     11.00% |          70      0.25%     11.25% |         100      0.36%     11.61% |         104      0.37%     11.98% |         123      0.44%     12.42% |           0      0.00%     12.42% |       24412     87.58%    100.00%
system.ruby.L1Cache_Controller.E.L1_Replacement::total        27874                      
system.ruby.L1Cache_Controller.E.Fwd_GETX |           0      0.00%      0.00% |           0      0.00%      0.00% |           0      0.00%      0.00% |           0      0.00%      0.00% |           1     25.00%     25.00% |           3     75.00%    100.00% |           0      0.00%    100.00% |           0      0.00%    100.00%
system.ruby.L1Cache_Controller.E.Fwd_GETX::total            4                      
system.ruby.L1Cache_Controller.E.Fwd_GETS |           0      0.00%      0.00% |           0      0.00%      0.00% |           6     21.43%     21.43% |          10     35.71%     57.14% |           8     28.57%     85.71% |           4     14.29%    100.00% |           0      0.00%    100.00% |           0      0.00%    100.00%
system.ruby.L1Cache_Controller.E.Fwd_GETS::total           28                      
system.ruby.L1Cache_Controller.M.Load    |      253890    100.00%    100.00% |           0      0.00%    100.00% |           2      0.00%    100.00% |           0      0.00%    100.00% |           0      0.00%    100.00% |           2      0.00%    100.00% |           0      0.00%    100.00% |           0      0.00%    100.00%
system.ruby.L1Cache_Controller.M.Load::total       253894                      
system.ruby.L1Cache_Controller.M.Store   |      561019    100.00%    100.00% |           0      0.00%    100.00% |           0      0.00%    100.00% |           0      0.00%    100.00% |           0      0.00%    100.00% |           0      0.00%    100.00% |           0      0.00%    100.00% |           0      0.00%    100.00%
system.ruby.L1Cache_Controller.M.Store::total       561019                      
system.ruby.L1Cache_Controller.M.Inv     |        3689     13.18%     13.18% |           0      0.00%     13.18% |        5861     20.94%     34.12% |        5861     20.94%     55.05% |        5830     20.83%     75.88% |        5792     20.69%     96.57% |           0      0.00%     96.57% |         960      3.43%    100.00%
system.ruby.L1Cache_Controller.M.Inv::total        27993                      
system.ruby.L1Cache_Controller.M.L1_Replacement |       17123     41.21%     41.21% |           0      0.00%     41.21% |         155      0.37%     41.58% |         154      0.37%     41.95% |         186      0.45%     42.40% |         221      0.53%     42.93% |           0      0.00%     42.93% |       23715     57.07%    100.00%
system.ruby.L1Cache_Controller.M.L1_Replacement::total        41554                      
system.ruby.L1Cache_Controller.M.Fwd_GETS |          35     89.74%     89.74% |           0      0.00%     89.74% |           0      0.00%     89.74% |           1      2.56%     92.31% |           0      0.00%     92.31% |           3      7.69%    100.00% |           0      0.00%    100.00% |           0      0.00%    100.00%
system.ruby.L1Cache_Controller.M.Fwd_GETS::total           39                      
system.ruby.L1Cache_Controller.IS.Inv    |          34     77.27%     77.27% |           0      0.00%     77.27% |           3      6.82%     84.09% |           2      4.55%     88.64% |           2      4.55%     93.18% |           3      6.82%    100.00% |           0      0.00%    100.00% |           0      0.00%    100.00%
system.ruby.L1Cache_Controller.IS.Inv::total           44                      
system.ruby.L1Cache_Controller.IS.L1_Replacement |           0      0.00%      0.00% |           0      0.00%      0.00% |        1366      0.40%      0.40% |        1290      0.38%      0.79% |        1353      0.40%      1.19% |        1275      0.38%      1.56% |           0      0.00%      1.56% |      332506     98.44%    100.00%
system.ruby.L1Cache_Controller.IS.L1_Replacement::total       337790                      
system.ruby.L1Cache_Controller.IS.Data_Exclusive |        9189     12.04%     12.04% |           0      0.00%     12.04% |       10621     13.91%     25.95% |       10607     13.90%     39.85% |       10630     13.93%     53.77% |       10647     13.95%     67.72% |           0      0.00%     67.72% |       24640     32.28%    100.00%
system.ruby.L1Cache_Controller.IS.Data_Exclusive::total        76334                      
system.ruby.L1Cache_Controller.IS.DataS_fromL1 |           0      0.00%      0.00% |           0      0.00%      0.00% |           9     13.43%     13.43% |          12     17.91%     31.34% |           8     11.94%     43.28% |           3      4.48%     47.76% |           0      0.00%     47.76% |          35     52.24%    100.00%
system.ruby.L1Cache_Controller.IS.DataS_fromL1::total           67                      
system.ruby.L1Cache_Controller.IS.Data_all_Acks |        4277     87.70%     87.70% |           0      0.00%     87.70% |         152      3.12%     90.81% |         167      3.42%     94.24% |         148      3.03%     97.27% |         133      2.73%    100.00% |           0      0.00%    100.00% |           0      0.00%    100.00%
system.ruby.L1Cache_Controller.IS.Data_all_Acks::total         4877                      
system.ruby.L1Cache_Controller.IM.L1_Replacement |           0      0.00%      0.00% |           0      0.00%      0.00% |        3289      0.92%      0.92% |        3722      1.04%      1.96% |        4180      1.17%      3.13% |        4084      1.14%      4.28% |           0      0.00%      4.28% |      341717     95.72%    100.00%
system.ruby.L1Cache_Controller.IM.L1_Replacement::total       356992                      
system.ruby.L1Cache_Controller.IM.Data_all_Acks |       20706     29.83%     29.83% |           0      0.00%     29.83% |        6008      8.65%     38.48% |        6003      8.65%     47.13% |        6016      8.67%     55.79% |        6016      8.67%     64.46% |           0      0.00%     64.46% |       24675     35.54%    100.00%
system.ruby.L1Cache_Controller.IM.Data_all_Acks::total        69424                      
system.ruby.L1Cache_Controller.IS_I.Data_all_Acks |          34     77.27%     77.27% |           0      0.00%     77.27% |           3      6.82%     84.09% |           2      4.55%     88.64% |           2      4.55%     93.18% |           3      6.82%    100.00% |           0      0.00%    100.00% |           0      0.00%    100.00%
system.ruby.L1Cache_Controller.IS_I.Data_all_Acks::total           44                      
system.ruby.L1Cache_Controller.M_I.Ifetch |           1    100.00%    100.00% |           0      0.00%    100.00% |           0      0.00%    100.00% |           0      0.00%    100.00% |           0      0.00%    100.00% |           0      0.00%    100.00% |           0      0.00%    100.00% |           0      0.00%    100.00%
system.ruby.L1Cache_Controller.M_I.Ifetch::total            1                      
system.ruby.L1Cache_Controller.M_I.Inv   |           0      0.00%      0.00% |           0      0.00%      0.00% |         108     18.24%     18.24% |         118     19.93%     38.18% |         127     21.45%     59.63% |         141     23.82%     83.45% |           0      0.00%     83.45% |          98     16.55%    100.00%
system.ruby.L1Cache_Controller.M_I.Inv::total          592                      
system.ruby.L1Cache_Controller.M_I.WB_Ack |       20188     29.33%     29.33% |           0      0.00%     29.33% |         117      0.17%     29.50% |         136      0.20%     29.70% |         163      0.24%     29.93% |         203      0.29%     30.23% |           0      0.00%     30.23% |       48029     69.77%    100.00%
system.ruby.L1Cache_Controller.M_I.WB_Ack::total        68836                      
system.ruby.L1Cache_Controller.SINK_WB_ACK.WB_Ack |           0      0.00%      0.00% |           0      0.00%      0.00% |         108     18.24%     18.24% |         118     19.93%     38.18% |         127     21.45%     59.63% |         141     23.82%     83.45% |           0      0.00%     83.45% |          98     16.55%    100.00%
system.ruby.L1Cache_Controller.SINK_WB_ACK.WB_Ack::total          592                      
system.ruby.L2Cache_Controller.L1_GET_INSTR         4457      0.00%      0.00%
system.ruby.L2Cache_Controller.L1_GETS          76870      0.00%      0.00%
system.ruby.L2Cache_Controller.L1_GETX          69424      0.00%      0.00%
system.ruby.L2Cache_Controller.L1_PUTX          68836      0.00%      0.00%
system.ruby.L2Cache_Controller.L1_PUTX_old          604      0.00%      0.00%
system.ruby.L2Cache_Controller.L2_Replacement        39238      0.00%      0.00%
system.ruby.L2Cache_Controller.L2_Replacement_clean       216167      0.00%      0.00%
system.ruby.L2Cache_Controller.Mem_Data        147682      0.00%      0.00%
system.ruby.L2Cache_Controller.Mem_Ack         145634      0.00%      0.00%
system.ruby.L2Cache_Controller.WB_Data          28501      0.00%      0.00%
system.ruby.L2Cache_Controller.WB_Data_clean          151      0.00%      0.00%
system.ruby.L2Cache_Controller.Ack                364      0.00%      0.00%
system.ruby.L2Cache_Controller.Ack_all          52386      0.00%      0.00%
system.ruby.L2Cache_Controller.Unblock             67      0.00%      0.00%
system.ruby.L2Cache_Controller.Exclusive_Unblock       145758      0.00%      0.00%
system.ruby.L2Cache_Controller.NP.L1_GET_INSTR         4287      0.00%      0.00%
system.ruby.L2Cache_Controller.NP.L1_GETS        74287      0.00%      0.00%
system.ruby.L2Cache_Controller.NP.L1_GETX        69108      0.00%      0.00%
system.ruby.L2Cache_Controller.NP.L1_PUTX_old          587      0.00%      0.00%
system.ruby.L2Cache_Controller.SS.L1_GET_INSTR          146      0.00%      0.00%
system.ruby.L2Cache_Controller.SS.L2_Replacement            4      0.00%      0.00%
system.ruby.L2Cache_Controller.SS.L2_Replacement_clean         4309      0.00%      0.00%
system.ruby.L2Cache_Controller.M.L1_GET_INSTR            3      0.00%      0.00%
system.ruby.L2Cache_Controller.M.L1_GETS         2280      0.00%      0.00%
system.ruby.L2Cache_Controller.M.L1_GETX          312      0.00%      0.00%
system.ruby.L2Cache_Controller.M.L2_Replacement        39231      0.00%      0.00%
system.ruby.L2Cache_Controller.M.L2_Replacement_clean        25432      0.00%      0.00%
system.ruby.L2Cache_Controller.MT.L1_GETS           67      0.00%      0.00%
system.ruby.L2Cache_Controller.MT.L1_GETX            4      0.00%      0.00%
system.ruby.L2Cache_Controller.MT.L1_PUTX        68836      0.00%      0.00%
system.ruby.L2Cache_Controller.MT.L2_Replacement            3      0.00%      0.00%
system.ruby.L2Cache_Controller.MT.L2_Replacement_clean        76655      0.00%      0.00%
system.ruby.L2Cache_Controller.M_I.L1_GET_INSTR            2      0.00%      0.00%
system.ruby.L2Cache_Controller.M_I.L1_PUTX_old            5      0.00%      0.00%
system.ruby.L2Cache_Controller.M_I.Mem_Ack       145634      0.00%      0.00%
system.ruby.L2Cache_Controller.MT_I.WB_Data            2      0.00%      0.00%
system.ruby.L2Cache_Controller.MT_I.Ack_all            1      0.00%      0.00%
system.ruby.L2Cache_Controller.MCT_I.L1_PUTX_old           12      0.00%      0.00%
system.ruby.L2Cache_Controller.MCT_I.WB_Data        28460      0.00%      0.00%
system.ruby.L2Cache_Controller.MCT_I.WB_Data_clean          123      0.00%      0.00%
system.ruby.L2Cache_Controller.MCT_I.Ack_all        48072      0.00%      0.00%
system.ruby.L2Cache_Controller.I_I.Ack            360      0.00%      0.00%
system.ruby.L2Cache_Controller.I_I.Ack_all         4309      0.00%      0.00%
system.ruby.L2Cache_Controller.S_I.Ack              4      0.00%      0.00%
system.ruby.L2Cache_Controller.S_I.Ack_all            4      0.00%      0.00%
system.ruby.L2Cache_Controller.ISS.L1_GETS          233      0.00%      0.00%
system.ruby.L2Cache_Controller.ISS.L2_Replacement_clean        51310      0.00%      0.00%
system.ruby.L2Cache_Controller.ISS.Mem_Data        74054      0.00%      0.00%
system.ruby.L2Cache_Controller.IS.L1_GET_INSTR           19      0.00%      0.00%
system.ruby.L2Cache_Controller.IS.L2_Replacement_clean         1667      0.00%      0.00%
system.ruby.L2Cache_Controller.IS.Mem_Data         4520      0.00%      0.00%
system.ruby.L2Cache_Controller.IM.L2_Replacement_clean        55248      0.00%      0.00%
system.ruby.L2Cache_Controller.IM.Mem_Data        69108      0.00%      0.00%
system.ruby.L2Cache_Controller.MT_MB.L1_GETS            3      0.00%      0.00%
system.ruby.L2Cache_Controller.MT_MB.L2_Replacement_clean         1543      0.00%      0.00%
system.ruby.L2Cache_Controller.MT_MB.Exclusive_Unblock       145758      0.00%      0.00%
system.ruby.L2Cache_Controller.MT_IIB.L2_Replacement_clean            2      0.00%      0.00%
system.ruby.L2Cache_Controller.MT_IIB.WB_Data           12      0.00%      0.00%
system.ruby.L2Cache_Controller.MT_IIB.WB_Data_clean            3      0.00%      0.00%
system.ruby.L2Cache_Controller.MT_IIB.Unblock           52      0.00%      0.00%
system.ruby.L2Cache_Controller.MT_IB.L2_Replacement_clean            1      0.00%      0.00%
system.ruby.L2Cache_Controller.MT_IB.WB_Data           27      0.00%      0.00%
system.ruby.L2Cache_Controller.MT_IB.WB_Data_clean           25      0.00%      0.00%
system.ruby.L2Cache_Controller.MT_SB.Unblock           15      0.00%      0.00%

---------- End Simulation Statistics   ----------
