
---------- Begin Simulation Statistics ----------
sim_seconds                                  0.346433                       # Number of seconds simulated
sim_ticks                                346432979750                       # Number of ticks simulated
final_tick                               346807977000                       # Number of ticks from beginning of simulation (restored from checkpoints and never reset)
sim_freq                                 1000000000000                       # Frequency of simulated ticks
host_inst_rate                                 224474                       # Simulator instruction rate (inst/s)
host_op_rate                                   414010                       # Simulator op (including micro ops) rate (op/s)
host_tick_rate                              388632232                       # Simulator tick rate (ticks/s)
host_mem_usage                                1318904                       # Number of bytes of host memory used
host_seconds                                   891.42                       # Real time elapsed on the host
sim_insts                                   200100002                       # Number of instructions simulated
sim_ops                                     369055462                       # Number of ops (including micro ops) simulated
system.voltage_domain.voltage                       1                       # Voltage in Volts
system.clk_domain.clock                          1000                       # Clock period in ticks
system.mem_ctrls.bytes_read::ruby.dir_cntrl0     15668224                       # Number of bytes read from this memory
system.mem_ctrls.bytes_read::total           15668224                       # Number of bytes read from this memory
system.mem_ctrls.bytes_written::ruby.dir_cntrl0     15630848                       # Number of bytes written to this memory
system.mem_ctrls.bytes_written::total        15630848                       # Number of bytes written to this memory
system.mem_ctrls.num_reads::ruby.dir_cntrl0       122408                       # Number of read requests responded to by this memory
system.mem_ctrls.num_reads::total              122408                       # Number of read requests responded to by this memory
system.mem_ctrls.num_writes::ruby.dir_cntrl0       122116                       # Number of write requests responded to by this memory
system.mem_ctrls.num_writes::total             122116                       # Number of write requests responded to by this memory
system.mem_ctrls.bw_read::ruby.dir_cntrl0     45227288                       # Total read bandwidth from this memory (bytes/s)
system.mem_ctrls.bw_read::total              45227288                       # Total read bandwidth from this memory (bytes/s)
system.mem_ctrls.bw_write::ruby.dir_cntrl0     45119399                       # Write bandwidth from this memory (bytes/s)
system.mem_ctrls.bw_write::total             45119399                       # Write bandwidth from this memory (bytes/s)
system.mem_ctrls.bw_total::ruby.dir_cntrl0     90346687                       # Total bandwidth to/from this memory (bytes/s)
system.mem_ctrls.bw_total::total             90346687                       # Total bandwidth to/from this memory (bytes/s)
system.mem_ctrls.readReqs                      122408                       # Number of read requests accepted
system.mem_ctrls.writeReqs                     122116                       # Number of write requests accepted
system.mem_ctrls.readBursts                    244816                       # Number of DRAM read bursts, including those serviced by the write queue
system.mem_ctrls.writeBursts                   244232                       # Number of DRAM write bursts, including those merged in the write queue
system.mem_ctrls.bytesReadDRAM               15650688                       # Total number of bytes read from DRAM
system.mem_ctrls.bytesReadWrQ                   17536                       # Total number of bytes read from write queue
system.mem_ctrls.bytesWritten                15629376                       # Total number of bytes written to DRAM
system.mem_ctrls.bytesReadSys                15668224                       # Total read bytes from the system interface side
system.mem_ctrls.bytesWrittenSys             15630848                       # Total written bytes from the system interface side
system.mem_ctrls.servicedByWrQ                    274                       # Number of DRAM read bursts serviced by the write queue
system.mem_ctrls.mergedWrBursts                     0                       # Number of DRAM write bursts merged with an existing one
system.mem_ctrls.neitherReadNorWriteReqs            0                       # Number of requests that are neither read nor write
system.mem_ctrls.perBankRdBursts::0             15232                       # Per bank write bursts
system.mem_ctrls.perBankRdBursts::1             15636                       # Per bank write bursts
system.mem_ctrls.perBankRdBursts::2             15354                       # Per bank write bursts
system.mem_ctrls.perBankRdBursts::3             15360                       # Per bank write bursts
system.mem_ctrls.perBankRdBursts::4             15360                       # Per bank write bursts
system.mem_ctrls.perBankRdBursts::5             15468                       # Per bank write bursts
system.mem_ctrls.perBankRdBursts::6             15238                       # Per bank write bursts
system.mem_ctrls.perBankRdBursts::7             15232                       # Per bank write bursts
system.mem_ctrls.perBankRdBursts::8             15232                       # Per bank write bursts
system.mem_ctrls.perBankRdBursts::9             15232                       # Per bank write bursts
system.mem_ctrls.perBankRdBursts::10            15168                       # Per bank write bursts
system.mem_ctrls.perBankRdBursts::11            15104                       # Per bank write bursts
system.mem_ctrls.perBankRdBursts::12            15148                       # Per bank write bursts
system.mem_ctrls.perBankRdBursts::13            15272                       # Per bank write bursts
system.mem_ctrls.perBankRdBursts::14            15266                       # Per bank write bursts
system.mem_ctrls.perBankRdBursts::15            15240                       # Per bank write bursts
system.mem_ctrls.perBankWrBursts::0             15232                       # Per bank write bursts
system.mem_ctrls.perBankWrBursts::1             15175                       # Per bank write bursts
system.mem_ctrls.perBankWrBursts::2             15452                       # Per bank write bursts
system.mem_ctrls.perBankWrBursts::3             15360                       # Per bank write bursts
system.mem_ctrls.perBankWrBursts::4             15360                       # Per bank write bursts
system.mem_ctrls.perBankWrBursts::5             15368                       # Per bank write bursts
system.mem_ctrls.perBankWrBursts::6             15238                       # Per bank write bursts
system.mem_ctrls.perBankWrBursts::7             15232                       # Per bank write bursts
system.mem_ctrls.perBankWrBursts::8             15232                       # Per bank write bursts
system.mem_ctrls.perBankWrBursts::9             15232                       # Per bank write bursts
system.mem_ctrls.perBankWrBursts::10            15168                       # Per bank write bursts
system.mem_ctrls.perBankWrBursts::11            15104                       # Per bank write bursts
system.mem_ctrls.perBankWrBursts::12            15148                       # Per bank write bursts
system.mem_ctrls.perBankWrBursts::13            15334                       # Per bank write bursts
system.mem_ctrls.perBankWrBursts::14            15342                       # Per bank write bursts
system.mem_ctrls.perBankWrBursts::15            15232                       # Per bank write bursts
system.mem_ctrls.numRdRetry                         0                       # Number of times read queue was full causing retry
system.mem_ctrls.numWrRetry                         0                       # Number of times write queue was full causing retry
system.mem_ctrls.totGap                  346430040000                       # Total gap between requests
system.mem_ctrls.readPktSize::0                     0                       # Read request sizes (log2)
system.mem_ctrls.readPktSize::1                     0                       # Read request sizes (log2)
system.mem_ctrls.readPktSize::2                     0                       # Read request sizes (log2)
system.mem_ctrls.readPktSize::3                     0                       # Read request sizes (log2)
system.mem_ctrls.readPktSize::4                     0                       # Read request sizes (log2)
system.mem_ctrls.readPktSize::5                     0                       # Read request sizes (log2)
system.mem_ctrls.readPktSize::6                244816                       # Read request sizes (log2)
system.mem_ctrls.writePktSize::0                    0                       # Write request sizes (log2)
system.mem_ctrls.writePktSize::1                    0                       # Write request sizes (log2)
system.mem_ctrls.writePktSize::2                    0                       # Write request sizes (log2)
system.mem_ctrls.writePktSize::3                    0                       # Write request sizes (log2)
system.mem_ctrls.writePktSize::4                    0                       # Write request sizes (log2)
system.mem_ctrls.writePktSize::5                    0                       # Write request sizes (log2)
system.mem_ctrls.writePktSize::6               244232                       # Write request sizes (log2)
system.mem_ctrls.rdQLenPdf::0                  122271                       # What read queue length does an incoming req see
system.mem_ctrls.rdQLenPdf::1                  122271                       # What read queue length does an incoming req see
system.mem_ctrls.rdQLenPdf::2                       0                       # What read queue length does an incoming req see
system.mem_ctrls.rdQLenPdf::3                       0                       # What read queue length does an incoming req see
system.mem_ctrls.rdQLenPdf::4                       0                       # What read queue length does an incoming req see
system.mem_ctrls.rdQLenPdf::5                       0                       # What read queue length does an incoming req see
system.mem_ctrls.rdQLenPdf::6                       0                       # What read queue length does an incoming req see
system.mem_ctrls.rdQLenPdf::7                       0                       # What read queue length does an incoming req see
system.mem_ctrls.rdQLenPdf::8                       0                       # What read queue length does an incoming req see
system.mem_ctrls.rdQLenPdf::9                       0                       # What read queue length does an incoming req see
system.mem_ctrls.rdQLenPdf::10                      0                       # What read queue length does an incoming req see
system.mem_ctrls.rdQLenPdf::11                      0                       # What read queue length does an incoming req see
system.mem_ctrls.rdQLenPdf::12                      0                       # What read queue length does an incoming req see
system.mem_ctrls.rdQLenPdf::13                      0                       # What read queue length does an incoming req see
system.mem_ctrls.rdQLenPdf::14                      0                       # What read queue length does an incoming req see
system.mem_ctrls.rdQLenPdf::15                      0                       # What read queue length does an incoming req see
system.mem_ctrls.rdQLenPdf::16                      0                       # What read queue length does an incoming req see
system.mem_ctrls.rdQLenPdf::17                      0                       # What read queue length does an incoming req see
system.mem_ctrls.rdQLenPdf::18                      0                       # What read queue length does an incoming req see
system.mem_ctrls.rdQLenPdf::19                      0                       # What read queue length does an incoming req see
system.mem_ctrls.rdQLenPdf::20                      0                       # What read queue length does an incoming req see
system.mem_ctrls.rdQLenPdf::21                      0                       # What read queue length does an incoming req see
system.mem_ctrls.rdQLenPdf::22                      0                       # What read queue length does an incoming req see
system.mem_ctrls.rdQLenPdf::23                      0                       # What read queue length does an incoming req see
system.mem_ctrls.rdQLenPdf::24                      0                       # What read queue length does an incoming req see
system.mem_ctrls.rdQLenPdf::25                      0                       # What read queue length does an incoming req see
system.mem_ctrls.rdQLenPdf::26                      0                       # What read queue length does an incoming req see
system.mem_ctrls.rdQLenPdf::27                      0                       # What read queue length does an incoming req see
system.mem_ctrls.rdQLenPdf::28                      0                       # What read queue length does an incoming req see
system.mem_ctrls.rdQLenPdf::29                      0                       # What read queue length does an incoming req see
system.mem_ctrls.rdQLenPdf::30                      0                       # What read queue length does an incoming req see
system.mem_ctrls.rdQLenPdf::31                      0                       # What read queue length does an incoming req see
system.mem_ctrls.wrQLenPdf::0                       1                       # What write queue length does an incoming req see
system.mem_ctrls.wrQLenPdf::1                       1                       # What write queue length does an incoming req see
system.mem_ctrls.wrQLenPdf::2                       1                       # What write queue length does an incoming req see
system.mem_ctrls.wrQLenPdf::3                       1                       # What write queue length does an incoming req see
system.mem_ctrls.wrQLenPdf::4                       1                       # What write queue length does an incoming req see
system.mem_ctrls.wrQLenPdf::5                       1                       # What write queue length does an incoming req see
system.mem_ctrls.wrQLenPdf::6                       1                       # What write queue length does an incoming req see
system.mem_ctrls.wrQLenPdf::7                       1                       # What write queue length does an incoming req see
system.mem_ctrls.wrQLenPdf::8                       1                       # What write queue length does an incoming req see
system.mem_ctrls.wrQLenPdf::9                       1                       # What write queue length does an incoming req see
system.mem_ctrls.wrQLenPdf::10                      1                       # What write queue length does an incoming req see
system.mem_ctrls.wrQLenPdf::11                      1                       # What write queue length does an incoming req see
system.mem_ctrls.wrQLenPdf::12                      1                       # What write queue length does an incoming req see
system.mem_ctrls.wrQLenPdf::13                      1                       # What write queue length does an incoming req see
system.mem_ctrls.wrQLenPdf::14                      1                       # What write queue length does an incoming req see
system.mem_ctrls.wrQLenPdf::15                   2888                       # What write queue length does an incoming req see
system.mem_ctrls.wrQLenPdf::16                   2888                       # What write queue length does an incoming req see
system.mem_ctrls.wrQLenPdf::17                  13096                       # What write queue length does an incoming req see
system.mem_ctrls.wrQLenPdf::18                  14903                       # What write queue length does an incoming req see
system.mem_ctrls.wrQLenPdf::19                  14905                       # What write queue length does an incoming req see
system.mem_ctrls.wrQLenPdf::20                  14904                       # What write queue length does an incoming req see
system.mem_ctrls.wrQLenPdf::21                  14903                       # What write queue length does an incoming req see
system.mem_ctrls.wrQLenPdf::22                  14903                       # What write queue length does an incoming req see
system.mem_ctrls.wrQLenPdf::23                  14902                       # What write queue length does an incoming req see
system.mem_ctrls.wrQLenPdf::24                  14902                       # What write queue length does an incoming req see
system.mem_ctrls.wrQLenPdf::25                  14902                       # What write queue length does an incoming req see
system.mem_ctrls.wrQLenPdf::26                  14902                       # What write queue length does an incoming req see
system.mem_ctrls.wrQLenPdf::27                  14902                       # What write queue length does an incoming req see
system.mem_ctrls.wrQLenPdf::28                  14902                       # What write queue length does an incoming req see
system.mem_ctrls.wrQLenPdf::29                  14902                       # What write queue length does an incoming req see
system.mem_ctrls.wrQLenPdf::30                  14902                       # What write queue length does an incoming req see
system.mem_ctrls.wrQLenPdf::31                  14902                       # What write queue length does an incoming req see
system.mem_ctrls.wrQLenPdf::32                  14902                       # What write queue length does an incoming req see
system.mem_ctrls.wrQLenPdf::33                   1807                       # What write queue length does an incoming req see
system.mem_ctrls.wrQLenPdf::34                      0                       # What write queue length does an incoming req see
system.mem_ctrls.wrQLenPdf::35                      0                       # What write queue length does an incoming req see
system.mem_ctrls.wrQLenPdf::36                      0                       # What write queue length does an incoming req see
system.mem_ctrls.wrQLenPdf::37                      0                       # What write queue length does an incoming req see
system.mem_ctrls.wrQLenPdf::38                      0                       # What write queue length does an incoming req see
system.mem_ctrls.wrQLenPdf::39                      0                       # What write queue length does an incoming req see
system.mem_ctrls.wrQLenPdf::40                      0                       # What write queue length does an incoming req see
system.mem_ctrls.wrQLenPdf::41                      0                       # What write queue length does an incoming req see
system.mem_ctrls.wrQLenPdf::42                      0                       # What write queue length does an incoming req see
system.mem_ctrls.wrQLenPdf::43                      0                       # What write queue length does an incoming req see
system.mem_ctrls.wrQLenPdf::44                      0                       # What write queue length does an incoming req see
system.mem_ctrls.wrQLenPdf::45                      0                       # What write queue length does an incoming req see
system.mem_ctrls.wrQLenPdf::46                      0                       # What write queue length does an incoming req see
system.mem_ctrls.wrQLenPdf::47                      0                       # What write queue length does an incoming req see
system.mem_ctrls.wrQLenPdf::48                      0                       # What write queue length does an incoming req see
system.mem_ctrls.wrQLenPdf::49                      0                       # What write queue length does an incoming req see
system.mem_ctrls.wrQLenPdf::50                      0                       # What write queue length does an incoming req see
system.mem_ctrls.wrQLenPdf::51                      0                       # What write queue length does an incoming req see
system.mem_ctrls.wrQLenPdf::52                      0                       # What write queue length does an incoming req see
system.mem_ctrls.wrQLenPdf::53                      0                       # What write queue length does an incoming req see
system.mem_ctrls.wrQLenPdf::54                      0                       # What write queue length does an incoming req see
system.mem_ctrls.wrQLenPdf::55                      0                       # What write queue length does an incoming req see
system.mem_ctrls.wrQLenPdf::56                      0                       # What write queue length does an incoming req see
system.mem_ctrls.wrQLenPdf::57                      0                       # What write queue length does an incoming req see
system.mem_ctrls.wrQLenPdf::58                      0                       # What write queue length does an incoming req see
system.mem_ctrls.wrQLenPdf::59                      0                       # What write queue length does an incoming req see
system.mem_ctrls.wrQLenPdf::60                      0                       # What write queue length does an incoming req see
system.mem_ctrls.wrQLenPdf::61                      0                       # What write queue length does an incoming req see
system.mem_ctrls.wrQLenPdf::62                      0                       # What write queue length does an incoming req see
system.mem_ctrls.wrQLenPdf::63                      0                       # What write queue length does an incoming req see
system.mem_ctrls.bytesPerActivate::samples        78999                       # Bytes accessed per row activation
system.mem_ctrls.bytesPerActivate::mean    395.957620                       # Bytes accessed per row activation
system.mem_ctrls.bytesPerActivate::gmean   304.838143                       # Bytes accessed per row activation
system.mem_ctrls.bytesPerActivate::stdev   308.991812                       # Bytes accessed per row activation
system.mem_ctrls.bytesPerActivate::0-127          604      0.76%      0.76% # Bytes accessed per row activation
system.mem_ctrls.bytesPerActivate::128-255        19272     24.40%     25.16% # Bytes accessed per row activation
system.mem_ctrls.bytesPerActivate::256-383        28063     35.52%     60.68% # Bytes accessed per row activation
system.mem_ctrls.bytesPerActivate::384-511        14296     18.10%     78.78% # Bytes accessed per row activation
system.mem_ctrls.bytesPerActivate::512-639         1003      1.27%     80.05% # Bytes accessed per row activation
system.mem_ctrls.bytesPerActivate::640-767          575      0.73%     80.78% # Bytes accessed per row activation
system.mem_ctrls.bytesPerActivate::768-895         1348      1.71%     82.48% # Bytes accessed per row activation
system.mem_ctrls.bytesPerActivate::896-1023         1351      1.71%     84.19% # Bytes accessed per row activation
system.mem_ctrls.bytesPerActivate::1024-1151        12487     15.81%    100.00% # Bytes accessed per row activation
system.mem_ctrls.bytesPerActivate::total        78999                       # Bytes accessed per row activation
system.mem_ctrls.rdPerTurnAround::samples        14902                       # Reads before turning the bus around for writes
system.mem_ctrls.rdPerTurnAround::mean      16.409475                       # Reads before turning the bus around for writes
system.mem_ctrls.rdPerTurnAround::gmean     16.385118                       # Reads before turning the bus around for writes
system.mem_ctrls.rdPerTurnAround::stdev      0.931496                       # Reads before turning the bus around for writes
system.mem_ctrls.rdPerTurnAround::14-15           111      0.74%      0.74% # Reads before turning the bus around for writes
system.mem_ctrls.rdPerTurnAround::16-17         11788     79.10%     79.85% # Reads before turning the bus around for writes
system.mem_ctrls.rdPerTurnAround::18-19          2921     19.60%     99.45% # Reads before turning the bus around for writes
system.mem_ctrls.rdPerTurnAround::20-21            39      0.26%     99.71% # Reads before turning the bus around for writes
system.mem_ctrls.rdPerTurnAround::22-23            19      0.13%     99.84% # Reads before turning the bus around for writes
system.mem_ctrls.rdPerTurnAround::24-25            21      0.14%     99.98% # Reads before turning the bus around for writes
system.mem_ctrls.rdPerTurnAround::30-31             2      0.01%     99.99% # Reads before turning the bus around for writes
system.mem_ctrls.rdPerTurnAround::32-33             1      0.01%    100.00% # Reads before turning the bus around for writes
system.mem_ctrls.rdPerTurnAround::total         14902                       # Reads before turning the bus around for writes
system.mem_ctrls.wrPerTurnAround::samples        14902                       # Writes before turning the bus around for reads
system.mem_ctrls.wrPerTurnAround::mean      16.387666                       # Writes before turning the bus around for reads
system.mem_ctrls.wrPerTurnAround::gmean     16.369484                       # Writes before turning the bus around for reads
system.mem_ctrls.wrPerTurnAround::stdev      0.790668                       # Writes before turning the bus around for reads
system.mem_ctrls.wrPerTurnAround::16            12013     80.61%     80.61% # Writes before turning the bus around for reads
system.mem_ctrls.wrPerTurnAround::17                2      0.01%     80.63% # Writes before turning the bus around for reads
system.mem_ctrls.wrPerTurnAround::18             2886     19.37%     99.99% # Writes before turning the bus around for reads
system.mem_ctrls.wrPerTurnAround::19                1      0.01%    100.00% # Writes before turning the bus around for reads
system.mem_ctrls.wrPerTurnAround::total         14902                       # Writes before turning the bus around for reads
system.mem_ctrls.totQLat                   7984392250                       # Total ticks spent queuing
system.mem_ctrls.totMemAccLat             12569554750                       # Total ticks spent from burst creation until serviced by the DRAM
system.mem_ctrls.totBusLat                 1222710000                       # Total ticks spent in databus transfers
system.mem_ctrls.avgQLat                     32650.39                       # Average queueing delay per DRAM burst
system.mem_ctrls.avgBusLat                    5000.00                       # Average bus latency per DRAM burst
system.mem_ctrls.avgMemAccLat                51400.39                       # Average memory access latency per DRAM burst
system.mem_ctrls.avgRdBW                        45.18                       # Average DRAM read bandwidth in MiByte/s
system.mem_ctrls.avgWrBW                        45.12                       # Average achieved write bandwidth in MiByte/s
system.mem_ctrls.avgRdBWSys                     45.23                       # Average system read bandwidth in MiByte/s
system.mem_ctrls.avgWrBWSys                     45.12                       # Average system write bandwidth in MiByte/s
system.mem_ctrls.peakBW                      12800.00                       # Theoretical peak bandwidth in MiByte/s
system.mem_ctrls.busUtil                         0.71                       # Data bus utilization in percentage
system.mem_ctrls.busUtilRead                     0.35                       # Data bus utilization in percentage for reads
system.mem_ctrls.busUtilWrite                    0.35                       # Data bus utilization in percentage for writes
system.mem_ctrls.avgRdQLen                       2.00                       # Average read queue length when enqueuing
system.mem_ctrls.avgWrQLen                      25.82                       # Average write queue length when enqueuing
system.mem_ctrls.readRowHits                   187589                       # Number of row buffer hits during reads
system.mem_ctrls.writeRowHits                  222164                       # Number of row buffer hits during writes
system.mem_ctrls.readRowHitRate                 76.71                       # Row buffer hit rate for reads
system.mem_ctrls.writeRowHitRate                90.96                       # Row buffer hit rate for writes
system.mem_ctrls.avgGap                    1416752.71                       # Average gap between requests
system.mem_ctrls.pageHitRate                    83.83                       # Row buffer hit rate, read and write combined
system.mem_ctrls_0.actEnergy                300888000                       # Energy for activate commands per rank (pJ)
system.mem_ctrls_0.preEnergy                164175000                       # Energy for precharge commands per rank (pJ)
system.mem_ctrls_0.readEnergy               980772000                       # Energy for read commands per rank (pJ)
system.mem_ctrls_0.writeEnergy              794558160                       # Energy for write commands per rank (pJ)
system.mem_ctrls_0.refreshEnergy          22651770960                       # Energy for refresh commands per rank (pJ)
system.mem_ctrls_0.actBackEnergy         103675811445                       # Energy for active background per rank (pJ)
system.mem_ctrls_0.preBackEnergy         117140878500                       # Energy for precharge background per rank (pJ)
system.mem_ctrls_0.totalEnergy           245708854065                       # Total energy per rank (pJ)
system.mem_ctrls_0.averagePower            708.487470                       # Core power per rank (mW)
system.mem_ctrls_0.memoryStateTime::IDLE 194062787000                       # Time in different power states
system.mem_ctrls_0.memoryStateTime::REF   11568180000                       # Time in different power states
system.mem_ctrls_0.memoryStateTime::PRE_PDN            0                       # Time in different power states
system.mem_ctrls_0.memoryStateTime::ACT  140802668000                       # Time in different power states
system.mem_ctrls_0.memoryStateTime::ACT_PDN            0                       # Time in different power states
system.mem_ctrls_1.actEnergy                301318920                       # Energy for activate commands per rank (pJ)
system.mem_ctrls_1.preEnergy                164410125                       # Energy for precharge commands per rank (pJ)
system.mem_ctrls_1.readEnergy               972706800                       # Energy for read commands per rank (pJ)
system.mem_ctrls_1.writeEnergy              791998560                       # Energy for write commands per rank (pJ)
system.mem_ctrls_1.refreshEnergy          22651770960                       # Energy for refresh commands per rank (pJ)
system.mem_ctrls_1.actBackEnergy         103700071215                       # Energy for active background per rank (pJ)
system.mem_ctrls_1.preBackEnergy         117119589750                       # Energy for precharge background per rank (pJ)
system.mem_ctrls_1.totalEnergy           245701866330                       # Total energy per rank (pJ)
system.mem_ctrls_1.averagePower            708.467349                       # Core power per rank (mW)
system.mem_ctrls_1.memoryStateTime::IDLE 194018039250                       # Time in different power states
system.mem_ctrls_1.memoryStateTime::REF   11568180000                       # Time in different power states
system.mem_ctrls_1.memoryStateTime::PRE_PDN            0                       # Time in different power states
system.mem_ctrls_1.memoryStateTime::ACT  140847388250                       # Time in different power states
system.mem_ctrls_1.memoryStateTime::ACT_PDN            0                       # Time in different power states
system.ruby_clk_domain.clock                      500                       # Clock period in ticks
system.ruby.phys_mem.bytes_read::switch_cpus0.inst   1986630560                       # Number of bytes read from this memory
system.ruby.phys_mem.bytes_read::switch_cpus0.data    268591251                       # Number of bytes read from this memory
system.ruby.phys_mem.bytes_read::total     2255221811                       # Number of bytes read from this memory
system.ruby.phys_mem.bytes_inst_read::switch_cpus0.inst   1986630560                       # Number of instructions bytes read from this memory
system.ruby.phys_mem.bytes_inst_read::total   1986630560                       # Number of instructions bytes read from this memory
system.ruby.phys_mem.bytes_written::switch_cpus0.data    200095830                       # Number of bytes written to this memory
system.ruby.phys_mem.bytes_written::total    200095830                       # Number of bytes written to this memory
system.ruby.phys_mem.num_reads::switch_cpus0.inst    248328820                       # Number of read requests responded to by this memory
system.ruby.phys_mem.num_reads::switch_cpus0.data     51640784                       # Number of read requests responded to by this memory
system.ruby.phys_mem.num_reads::total       299969604                       # Number of read requests responded to by this memory
system.ruby.phys_mem.num_writes::switch_cpus0.data     34472564                       # Number of write requests responded to by this memory
system.ruby.phys_mem.num_writes::total       34472564                       # Number of write requests responded to by this memory
system.ruby.phys_mem.bw_read::switch_cpus0.inst   5734530706                       # Total read bandwidth from this memory (bytes/s)
system.ruby.phys_mem.bw_read::switch_cpus0.data    775305086                       # Total read bandwidth from this memory (bytes/s)
system.ruby.phys_mem.bw_read::total        6509835792                       # Total read bandwidth from this memory (bytes/s)
system.ruby.phys_mem.bw_inst_read::switch_cpus0.inst   5734530706                       # Instruction read bandwidth from this memory (bytes/s)
system.ruby.phys_mem.bw_inst_read::total   5734530706                       # Instruction read bandwidth from this memory (bytes/s)
system.ruby.phys_mem.bw_write::switch_cpus0.data    577588860                       # Write bandwidth from this memory (bytes/s)
system.ruby.phys_mem.bw_write::total        577588860                       # Write bandwidth from this memory (bytes/s)
system.ruby.phys_mem.bw_total::switch_cpus0.inst   5734530706                       # Total bandwidth to/from this memory (bytes/s)
system.ruby.phys_mem.bw_total::switch_cpus0.data   1352893946                       # Total bandwidth to/from this memory (bytes/s)
system.ruby.phys_mem.bw_total::total       7087424652                       # Total bandwidth to/from this memory (bytes/s)
system.cpu_voltage_domain.voltage                   1                       # Voltage in Volts
system.cpu_clk_domain.clock                       500                       # Clock period in ticks
system.cpu0.apic_clk_domain.clock                8000                       # Clock period in ticks
system.cpu0.workload.num_syscalls                   0                       # Number of system calls
system.cpu0.numCycles                               0                       # number of cpu cycles simulated
system.cpu0.numWorkItemsStarted                     0                       # number of work items this cpu started
system.cpu0.numWorkItemsCompleted                   0                       # number of work items this cpu completed
system.cpu0.committedInsts                          0                       # Number of instructions committed
system.cpu0.committedOps                            0                       # Number of ops (including micro ops) committed
system.cpu0.num_int_alu_accesses                    0                       # Number of integer alu accesses
system.cpu0.num_fp_alu_accesses                     0                       # Number of float alu accesses
system.cpu0.num_func_calls                          0                       # number of times a function call or return occured
system.cpu0.num_conditional_control_insts            0                       # number of instructions that are conditional controls
system.cpu0.num_int_insts                           0                       # number of integer instructions
system.cpu0.num_fp_insts                            0                       # number of float instructions
system.cpu0.num_int_register_reads                  0                       # number of times the integer registers were read
system.cpu0.num_int_register_writes                 0                       # number of times the integer registers were written
system.cpu0.num_fp_register_reads                   0                       # number of times the floating registers were read
system.cpu0.num_fp_register_writes                  0                       # number of times the floating registers were written
system.cpu0.num_mem_refs                            0                       # number of memory refs
system.cpu0.num_load_insts                          0                       # Number of load instructions
system.cpu0.num_store_insts                         0                       # Number of store instructions
system.cpu0.num_idle_cycles                         0                       # Number of idle cycles
system.cpu0.num_busy_cycles                         0                       # Number of busy cycles
system.cpu0.not_idle_fraction                       1                       # Percentage of non-idle cycles
system.cpu0.idle_fraction                           0                       # Percentage of idle cycles
system.cpu0.op_class::No_OpClass                    0                       # Class of executed instruction
system.cpu0.op_class::IntAlu                        0                       # Class of executed instruction
system.cpu0.op_class::IntMult                       0                       # Class of executed instruction
system.cpu0.op_class::IntDiv                        0                       # Class of executed instruction
system.cpu0.op_class::FloatAdd                      0                       # Class of executed instruction
system.cpu0.op_class::FloatCmp                      0                       # Class of executed instruction
system.cpu0.op_class::FloatCvt                      0                       # Class of executed instruction
system.cpu0.op_class::FloatMult                     0                       # Class of executed instruction
system.cpu0.op_class::FloatDiv                      0                       # Class of executed instruction
system.cpu0.op_class::FloatSqrt                     0                       # Class of executed instruction
system.cpu0.op_class::SimdAdd                       0                       # Class of executed instruction
system.cpu0.op_class::SimdAddAcc                    0                       # Class of executed instruction
system.cpu0.op_class::SimdAlu                       0                       # Class of executed instruction
system.cpu0.op_class::SimdCmp                       0                       # Class of executed instruction
system.cpu0.op_class::SimdCvt                       0                       # Class of executed instruction
system.cpu0.op_class::SimdMisc                      0                       # Class of executed instruction
system.cpu0.op_class::SimdMult                      0                       # Class of executed instruction
system.cpu0.op_class::SimdMultAcc                   0                       # Class of executed instruction
system.cpu0.op_class::SimdShift                     0                       # Class of executed instruction
system.cpu0.op_class::SimdShiftAcc                  0                       # Class of executed instruction
system.cpu0.op_class::SimdSqrt                      0                       # Class of executed instruction
system.cpu0.op_class::SimdFloatAdd                  0                       # Class of executed instruction
system.cpu0.op_class::SimdFloatAlu                  0                       # Class of executed instruction
system.cpu0.op_class::SimdFloatCmp                  0                       # Class of executed instruction
system.cpu0.op_class::SimdFloatCvt                  0                       # Class of executed instruction
system.cpu0.op_class::SimdFloatDiv                  0                       # Class of executed instruction
system.cpu0.op_class::SimdFloatMisc                 0                       # Class of executed instruction
system.cpu0.op_class::SimdFloatMult                 0                       # Class of executed instruction
system.cpu0.op_class::SimdFloatMultAcc              0                       # Class of executed instruction
system.cpu0.op_class::SimdFloatSqrt                 0                       # Class of executed instruction
system.cpu0.op_class::MemRead                       0                       # Class of executed instruction
system.cpu0.op_class::MemWrite                      0                       # Class of executed instruction
system.cpu0.op_class::IprAccess                     0                       # Class of executed instruction
system.cpu0.op_class::InstPrefetch                  0                       # Class of executed instruction
system.cpu0.op_class::total                         0                       # Class of executed instruction
system.cpu1.apic_clk_domain.clock                8000                       # Clock period in ticks
system.cpu1.numCycles                               0                       # number of cpu cycles simulated
system.cpu1.numWorkItemsStarted                     0                       # number of work items this cpu started
system.cpu1.numWorkItemsCompleted                   0                       # number of work items this cpu completed
system.cpu1.committedInsts                          0                       # Number of instructions committed
system.cpu1.committedOps                            0                       # Number of ops (including micro ops) committed
system.cpu1.num_int_alu_accesses                    0                       # Number of integer alu accesses
system.cpu1.num_fp_alu_accesses                     0                       # Number of float alu accesses
system.cpu1.num_func_calls                          0                       # number of times a function call or return occured
system.cpu1.num_conditional_control_insts            0                       # number of instructions that are conditional controls
system.cpu1.num_int_insts                           0                       # number of integer instructions
system.cpu1.num_fp_insts                            0                       # number of float instructions
system.cpu1.num_int_register_reads                  0                       # number of times the integer registers were read
system.cpu1.num_int_register_writes                 0                       # number of times the integer registers were written
system.cpu1.num_fp_register_reads                   0                       # number of times the floating registers were read
system.cpu1.num_fp_register_writes                  0                       # number of times the floating registers were written
system.cpu1.num_mem_refs                            0                       # number of memory refs
system.cpu1.num_load_insts                          0                       # Number of load instructions
system.cpu1.num_store_insts                         0                       # Number of store instructions
system.cpu1.num_idle_cycles                         0                       # Number of idle cycles
system.cpu1.num_busy_cycles                         0                       # Number of busy cycles
system.cpu1.not_idle_fraction                       0                       # Percentage of non-idle cycles
system.cpu1.idle_fraction                           1                       # Percentage of idle cycles
system.cpu1.op_class::No_OpClass                    0                       # Class of executed instruction
system.cpu1.op_class::IntAlu                        0                       # Class of executed instruction
system.cpu1.op_class::IntMult                       0                       # Class of executed instruction
system.cpu1.op_class::IntDiv                        0                       # Class of executed instruction
system.cpu1.op_class::FloatAdd                      0                       # Class of executed instruction
system.cpu1.op_class::FloatCmp                      0                       # Class of executed instruction
system.cpu1.op_class::FloatCvt                      0                       # Class of executed instruction
system.cpu1.op_class::FloatMult                     0                       # Class of executed instruction
system.cpu1.op_class::FloatDiv                      0                       # Class of executed instruction
system.cpu1.op_class::FloatSqrt                     0                       # Class of executed instruction
system.cpu1.op_class::SimdAdd                       0                       # Class of executed instruction
system.cpu1.op_class::SimdAddAcc                    0                       # Class of executed instruction
system.cpu1.op_class::SimdAlu                       0                       # Class of executed instruction
system.cpu1.op_class::SimdCmp                       0                       # Class of executed instruction
system.cpu1.op_class::SimdCvt                       0                       # Class of executed instruction
system.cpu1.op_class::SimdMisc                      0                       # Class of executed instruction
system.cpu1.op_class::SimdMult                      0                       # Class of executed instruction
system.cpu1.op_class::SimdMultAcc                   0                       # Class of executed instruction
system.cpu1.op_class::SimdShift                     0                       # Class of executed instruction
system.cpu1.op_class::SimdShiftAcc                  0                       # Class of executed instruction
system.cpu1.op_class::SimdSqrt                      0                       # Class of executed instruction
system.cpu1.op_class::SimdFloatAdd                  0                       # Class of executed instruction
system.cpu1.op_class::SimdFloatAlu                  0                       # Class of executed instruction
system.cpu1.op_class::SimdFloatCmp                  0                       # Class of executed instruction
system.cpu1.op_class::SimdFloatCvt                  0                       # Class of executed instruction
system.cpu1.op_class::SimdFloatDiv                  0                       # Class of executed instruction
system.cpu1.op_class::SimdFloatMisc                 0                       # Class of executed instruction
system.cpu1.op_class::SimdFloatMult                 0                       # Class of executed instruction
system.cpu1.op_class::SimdFloatMultAcc              0                       # Class of executed instruction
system.cpu1.op_class::SimdFloatSqrt                 0                       # Class of executed instruction
system.cpu1.op_class::MemRead                       0                       # Class of executed instruction
system.cpu1.op_class::MemWrite                      0                       # Class of executed instruction
system.cpu1.op_class::IprAccess                     0                       # Class of executed instruction
system.cpu1.op_class::InstPrefetch                  0                       # Class of executed instruction
system.cpu1.op_class::total                         0                       # Class of executed instruction
system.gpu.clk_domain.voltage_domain.voltage            1                       # Voltage in Volts
system.gpu.clk_domain.clock                      1429                       # Clock period in ticks
system.gpu.dram_wrapper.clk_domain.clock          541                       # Clock period in ticks
system.gpu.icnt_wrapper.clk_domain.clock         2858                       # Clock period in ticks
system.ruby.delayHist::bucket_size                  2                       # delay histogram for all message
system.ruby.delayHist::max_bucket                  19                       # delay histogram for all message
system.ruby.delayHist::samples                 856628                       # delay histogram for all message
system.ruby.delayHist::mean                  2.277936                       # delay histogram for all message
system.ruby.delayHist::stdev                 5.590888                       # delay histogram for all message
system.ruby.delayHist                    |      734669     85.76%     85.76% |           0      0.00%     85.76% |           0      0.00%     85.76% |           0      0.00%     85.76% |           0      0.00%     85.76% |           0      0.00%     85.76% |           0      0.00%     85.76% |           0      0.00%     85.76% |      121959     14.24%    100.00% |           0      0.00%    100.00% # delay histogram for all message
system.ruby.delayHist::total                   856628                       # delay histogram for all message
system.ruby.outstanding_req_hist::bucket_size            1                      
system.ruby.outstanding_req_hist::max_bucket            9                      
system.ruby.outstanding_req_hist::samples    334442169                      
system.ruby.outstanding_req_hist::mean              1                      
system.ruby.outstanding_req_hist::gmean             1                      
system.ruby.outstanding_req_hist         |           0      0.00%      0.00% |   334442169    100.00%    100.00% |           0      0.00%    100.00% |           0      0.00%    100.00% |           0      0.00%    100.00% |           0      0.00%    100.00% |           0      0.00%    100.00% |           0      0.00%    100.00% |           0      0.00%    100.00% |           0      0.00%    100.00%
system.ruby.outstanding_req_hist::total     334442169                      
system.ruby.latency_hist::bucket_size             128                      
system.ruby.latency_hist::max_bucket             1279                      
system.ruby.latency_hist::samples           334442168                      
system.ruby.latency_hist::mean               1.071706                      
system.ruby.latency_hist::gmean              1.001891                      
system.ruby.latency_hist::stdev              4.481899                      
system.ruby.latency_hist                 |   334319897     99.96%     99.96% |      104523      0.03%     99.99% |        1696      0.00%    100.00% |       12094      0.00%    100.00% |        1262      0.00%    100.00% |        2296      0.00%    100.00% |           1      0.00%    100.00% |         100      0.00%    100.00% |         299      0.00%    100.00% |           0      0.00%    100.00%
system.ruby.latency_hist::total             334442168                      
system.ruby.hit_latency_hist::bucket_size            1                      
system.ruby.hit_latency_hist::max_bucket            9                      
system.ruby.hit_latency_hist::samples       334319757                      
system.ruby.hit_latency_hist::mean                  1                      
system.ruby.hit_latency_hist::gmean                 1                      
system.ruby.hit_latency_hist             |           0      0.00%      0.00% |   334319757    100.00%    100.00% |           0      0.00%    100.00% |           0      0.00%    100.00% |           0      0.00%    100.00% |           0      0.00%    100.00% |           0      0.00%    100.00% |           0      0.00%    100.00% |           0      0.00%    100.00% |           0      0.00%    100.00%
system.ruby.hit_latency_hist::total         334319757                      
system.ruby.miss_latency_hist::bucket_size          128                      
system.ruby.miss_latency_hist::max_bucket         1279                      
system.ruby.miss_latency_hist::samples         122411                      
system.ruby.miss_latency_hist::mean        196.910678                      
system.ruby.miss_latency_hist::gmean       174.424539                      
system.ruby.miss_latency_hist::stdev       128.508908                      
system.ruby.miss_latency_hist            |         140      0.11%      0.11% |      104523     85.39%     85.50% |        1696      1.39%     86.89% |       12094      9.88%     96.77% |        1262      1.03%     97.80% |        2296      1.88%     99.67% |           1      0.00%     99.67% |         100      0.08%     99.76% |         299      0.24%    100.00% |           0      0.00%    100.00%
system.ruby.miss_latency_hist::total           122411                      
system.gpu.shader_mmu.numPagefaults                 0                       # Number of Pagefaults
system.gpu.shader_mmu.numPagewalks                  0                       # Number of Pagewalks
system.gpu.shader_mmu.totalRequests                 0                       # Total number of requests
system.gpu.shader_mmu.l2hits                        0                       # Hits in the shared L2
system.gpu.shader_mmu.prefetchHits                  0                       # Number of prefetch hits
system.gpu.shader_mmu.numPrefetches                 0                       # Number of prefetchs
system.gpu.shader_mmu.prefetchFaults                0                       # Number of faults caused by prefetches
system.gpu.shader_mmu.pagefaultLatency::samples            0                       # Latency to complete the pagefault
system.gpu.shader_mmu.pagefaultLatency::mean          nan                       # Latency to complete the pagefault
system.gpu.shader_mmu.pagefaultLatency::gmean          nan                       # Latency to complete the pagefault
system.gpu.shader_mmu.pagefaultLatency::stdev          nan                       # Latency to complete the pagefault
system.gpu.shader_mmu.pagefaultLatency::0            0                       # Latency to complete the pagefault
system.gpu.shader_mmu.pagefaultLatency::1            0                       # Latency to complete the pagefault
system.gpu.shader_mmu.pagefaultLatency::2            0                       # Latency to complete the pagefault
system.gpu.shader_mmu.pagefaultLatency::3            0                       # Latency to complete the pagefault
system.gpu.shader_mmu.pagefaultLatency::4            0                       # Latency to complete the pagefault
system.gpu.shader_mmu.pagefaultLatency::5            0                       # Latency to complete the pagefault
system.gpu.shader_mmu.pagefaultLatency::6            0                       # Latency to complete the pagefault
system.gpu.shader_mmu.pagefaultLatency::7            0                       # Latency to complete the pagefault
system.gpu.shader_mmu.pagefaultLatency::8            0                       # Latency to complete the pagefault
system.gpu.shader_mmu.pagefaultLatency::9            0                       # Latency to complete the pagefault
system.gpu.shader_mmu.pagefaultLatency::10            0                       # Latency to complete the pagefault
system.gpu.shader_mmu.pagefaultLatency::11            0                       # Latency to complete the pagefault
system.gpu.shader_mmu.pagefaultLatency::12            0                       # Latency to complete the pagefault
system.gpu.shader_mmu.pagefaultLatency::13            0                       # Latency to complete the pagefault
system.gpu.shader_mmu.pagefaultLatency::14            0                       # Latency to complete the pagefault
system.gpu.shader_mmu.pagefaultLatency::15            0                       # Latency to complete the pagefault
system.gpu.shader_mmu.pagefaultLatency::16            0                       # Latency to complete the pagefault
system.gpu.shader_mmu.pagefaultLatency::17            0                       # Latency to complete the pagefault
system.gpu.shader_mmu.pagefaultLatency::18            0                       # Latency to complete the pagefault
system.gpu.shader_mmu.pagefaultLatency::19            0                       # Latency to complete the pagefault
system.gpu.shader_mmu.pagefaultLatency::20            0                       # Latency to complete the pagefault
system.gpu.shader_mmu.pagefaultLatency::21            0                       # Latency to complete the pagefault
system.gpu.shader_mmu.pagefaultLatency::22            0                       # Latency to complete the pagefault
system.gpu.shader_mmu.pagefaultLatency::23            0                       # Latency to complete the pagefault
system.gpu.shader_mmu.pagefaultLatency::24            0                       # Latency to complete the pagefault
system.gpu.shader_mmu.pagefaultLatency::25            0                       # Latency to complete the pagefault
system.gpu.shader_mmu.pagefaultLatency::26            0                       # Latency to complete the pagefault
system.gpu.shader_mmu.pagefaultLatency::27            0                       # Latency to complete the pagefault
system.gpu.shader_mmu.pagefaultLatency::28            0                       # Latency to complete the pagefault
system.gpu.shader_mmu.pagefaultLatency::29            0                       # Latency to complete the pagefault
system.gpu.shader_mmu.pagefaultLatency::30            0                       # Latency to complete the pagefault
system.gpu.shader_mmu.pagefaultLatency::31            0                       # Latency to complete the pagefault
system.gpu.shader_mmu.pagefaultLatency::total            0                       # Latency to complete the pagefault
system.gpu.shader_mmu.concurrentWalks::samples            0                       # Number of outstanding walks
system.gpu.shader_mmu.concurrentWalks::mean          nan                       # Number of outstanding walks
system.gpu.shader_mmu.concurrentWalks::gmean          nan                       # Number of outstanding walks
system.gpu.shader_mmu.concurrentWalks::stdev          nan                       # Number of outstanding walks
system.gpu.shader_mmu.concurrentWalks::0            0                       # Number of outstanding walks
system.gpu.shader_mmu.concurrentWalks::1            0                       # Number of outstanding walks
system.gpu.shader_mmu.concurrentWalks::2            0                       # Number of outstanding walks
system.gpu.shader_mmu.concurrentWalks::3            0                       # Number of outstanding walks
system.gpu.shader_mmu.concurrentWalks::4            0                       # Number of outstanding walks
system.gpu.shader_mmu.concurrentWalks::5            0                       # Number of outstanding walks
system.gpu.shader_mmu.concurrentWalks::6            0                       # Number of outstanding walks
system.gpu.shader_mmu.concurrentWalks::7            0                       # Number of outstanding walks
system.gpu.shader_mmu.concurrentWalks::8            0                       # Number of outstanding walks
system.gpu.shader_mmu.concurrentWalks::9            0                       # Number of outstanding walks
system.gpu.shader_mmu.concurrentWalks::10            0                       # Number of outstanding walks
system.gpu.shader_mmu.concurrentWalks::11            0                       # Number of outstanding walks
system.gpu.shader_mmu.concurrentWalks::12            0                       # Number of outstanding walks
system.gpu.shader_mmu.concurrentWalks::13            0                       # Number of outstanding walks
system.gpu.shader_mmu.concurrentWalks::14            0                       # Number of outstanding walks
system.gpu.shader_mmu.concurrentWalks::15            0                       # Number of outstanding walks
system.gpu.shader_mmu.concurrentWalks::total            0                       # Number of outstanding walks
system.gpu.shader_mmu.pagewalkLatency::samples            0                       # Latency to complete the pagewalk
system.gpu.shader_mmu.pagewalkLatency::mean          nan                       # Latency to complete the pagewalk
system.gpu.shader_mmu.pagewalkLatency::gmean          nan                       # Latency to complete the pagewalk
system.gpu.shader_mmu.pagewalkLatency::stdev          nan                       # Latency to complete the pagewalk
system.gpu.shader_mmu.pagewalkLatency::0            0                       # Latency to complete the pagewalk
system.gpu.shader_mmu.pagewalkLatency::1            0                       # Latency to complete the pagewalk
system.gpu.shader_mmu.pagewalkLatency::2            0                       # Latency to complete the pagewalk
system.gpu.shader_mmu.pagewalkLatency::3            0                       # Latency to complete the pagewalk
system.gpu.shader_mmu.pagewalkLatency::4            0                       # Latency to complete the pagewalk
system.gpu.shader_mmu.pagewalkLatency::5            0                       # Latency to complete the pagewalk
system.gpu.shader_mmu.pagewalkLatency::6            0                       # Latency to complete the pagewalk
system.gpu.shader_mmu.pagewalkLatency::7            0                       # Latency to complete the pagewalk
system.gpu.shader_mmu.pagewalkLatency::8            0                       # Latency to complete the pagewalk
system.gpu.shader_mmu.pagewalkLatency::9            0                       # Latency to complete the pagewalk
system.gpu.shader_mmu.pagewalkLatency::10            0                       # Latency to complete the pagewalk
system.gpu.shader_mmu.pagewalkLatency::11            0                       # Latency to complete the pagewalk
system.gpu.shader_mmu.pagewalkLatency::12            0                       # Latency to complete the pagewalk
system.gpu.shader_mmu.pagewalkLatency::13            0                       # Latency to complete the pagewalk
system.gpu.shader_mmu.pagewalkLatency::14            0                       # Latency to complete the pagewalk
system.gpu.shader_mmu.pagewalkLatency::15            0                       # Latency to complete the pagewalk
system.gpu.shader_mmu.pagewalkLatency::16            0                       # Latency to complete the pagewalk
system.gpu.shader_mmu.pagewalkLatency::17            0                       # Latency to complete the pagewalk
system.gpu.shader_mmu.pagewalkLatency::18            0                       # Latency to complete the pagewalk
system.gpu.shader_mmu.pagewalkLatency::19            0                       # Latency to complete the pagewalk
system.gpu.shader_mmu.pagewalkLatency::20            0                       # Latency to complete the pagewalk
system.gpu.shader_mmu.pagewalkLatency::21            0                       # Latency to complete the pagewalk
system.gpu.shader_mmu.pagewalkLatency::22            0                       # Latency to complete the pagewalk
system.gpu.shader_mmu.pagewalkLatency::23            0                       # Latency to complete the pagewalk
system.gpu.shader_mmu.pagewalkLatency::24            0                       # Latency to complete the pagewalk
system.gpu.shader_mmu.pagewalkLatency::25            0                       # Latency to complete the pagewalk
system.gpu.shader_mmu.pagewalkLatency::26            0                       # Latency to complete the pagewalk
system.gpu.shader_mmu.pagewalkLatency::27            0                       # Latency to complete the pagewalk
system.gpu.shader_mmu.pagewalkLatency::28            0                       # Latency to complete the pagewalk
system.gpu.shader_mmu.pagewalkLatency::29            0                       # Latency to complete the pagewalk
system.gpu.shader_mmu.pagewalkLatency::30            0                       # Latency to complete the pagewalk
system.gpu.shader_mmu.pagewalkLatency::31            0                       # Latency to complete the pagewalk
system.gpu.shader_mmu.pagewalkLatency::total            0                       # Latency to complete the pagewalk
system.gpu.kernels_started                          0                       # Number of kernels started
system.gpu.kernels_completed                        0                       # Number of kernels completed
system.gpu.ce.device_dtb.hits                       0                       # Number of hits in this TLB
system.gpu.ce.device_dtb.misses                     0                       # Number of misses in this TLB
system.gpu.ce.device_dtb.hitRate                  nan                       # Hit rate for this TLB
system.gpu.ce.host_dtb.hits                         0                       # Number of hits in this TLB
system.gpu.ce.host_dtb.misses                       0                       # Number of misses in this TLB
system.gpu.ce.host_dtb.hitRate                    nan                       # Hit rate for this TLB
system.gpu.ce.numOperations                         0                       # Number of copy/memset operations
system.gpu.ce.opBytesRead                           0                       # Number of copy bytes read
system.gpu.ce.opBytesWritten                        0                       # Number of copy/memset bytes written
system.gpu.ce.opTimeTicks                           0                       # Total time spent in copy/memset operations
system.gpu.shader_cores0.itb.hits                   0                       # Number of hits in this TLB
system.gpu.shader_cores0.itb.misses                 0                       # Number of misses in this TLB
system.gpu.shader_cores0.itb.hitRate              nan                       # Hit rate for this TLB
system.gpu.shader_cores0.local_loads                0                       # Number of loads from local space
system.gpu.shader_cores0.local_stores               0                       # Number of stores to local space
system.gpu.shader_cores0.shared_loads               0                       # Number of loads from shared space
system.gpu.shader_cores0.shared_stores              0                       # Number of stores to shared space
system.gpu.shader_cores0.param_kernel_loads            0                       # Number of loads from kernel parameter space
system.gpu.shader_cores0.param_local_loads            0                       # Number of loads from local parameter space
system.gpu.shader_cores0.param_local_stores            0                       # Number of stores to local parameter space
system.gpu.shader_cores0.const_loads                0                       # Number of loads from constant space
system.gpu.shader_cores0.tex_loads                  0                       # Number of loads from texture space
system.gpu.shader_cores0.global_loads               0                       # Number of loads from global space
system.gpu.shader_cores0.global_stores              0                       # Number of stores to global space
system.gpu.shader_cores0.surf_loads                 0                       # Number of loads from surface space
system.gpu.shader_cores0.generic_loads              0                       # Number of loads from generic spaces (global, shared, local)
system.gpu.shader_cores0.generic_stores             0                       # Number of stores to generic spaces (global, shared, local)
system.gpu.shader_cores0.inst_cache_requests            0                       # Number of instruction cache requests sent
system.gpu.shader_cores0.inst_cache_retries            0                       # Number of instruction cache retries
system.gpu.shader_cores0.inst_counts::0             0                       # Inst counts: 1: ALU, 2: MAD, 3: CTRL, 4: SFU, 5: MEM, 6: TEX, 7: NOP
system.gpu.shader_cores0.inst_counts::1             0                       # Inst counts: 1: ALU, 2: MAD, 3: CTRL, 4: SFU, 5: MEM, 6: TEX, 7: NOP
system.gpu.shader_cores0.inst_counts::2             0                       # Inst counts: 1: ALU, 2: MAD, 3: CTRL, 4: SFU, 5: MEM, 6: TEX, 7: NOP
system.gpu.shader_cores0.inst_counts::3             0                       # Inst counts: 1: ALU, 2: MAD, 3: CTRL, 4: SFU, 5: MEM, 6: TEX, 7: NOP
system.gpu.shader_cores0.inst_counts::4             0                       # Inst counts: 1: ALU, 2: MAD, 3: CTRL, 4: SFU, 5: MEM, 6: TEX, 7: NOP
system.gpu.shader_cores0.inst_counts::5             0                       # Inst counts: 1: ALU, 2: MAD, 3: CTRL, 4: SFU, 5: MEM, 6: TEX, 7: NOP
system.gpu.shader_cores0.inst_counts::6             0                       # Inst counts: 1: ALU, 2: MAD, 3: CTRL, 4: SFU, 5: MEM, 6: TEX, 7: NOP
system.gpu.shader_cores0.inst_counts::7             0                       # Inst counts: 1: ALU, 2: MAD, 3: CTRL, 4: SFU, 5: MEM, 6: TEX, 7: NOP
system.gpu.shader_cores0.activeCycles               0                       # Number of cycles this shader was executing a CTA
system.gpu.shader_cores0.notStalledCycles            0                       # Number of cycles this shader was actually executing at least one instance
system.gpu.shader_cores0.instInstances              0                       # Total instructions executed by all PEs in the core
system.gpu.shader_cores0.instPerCycle             nan                       # Instruction instances per cycle
system.gpu.shader_cores0.kernels_completed            0                       # Number of kernels completed
system.gpu.shader_cores0.lsq.data_tlb.hits            0                       # Number of hits in this TLB
system.gpu.shader_cores0.lsq.data_tlb.misses            0                       # Number of misses in this TLB
system.gpu.shader_cores0.lsq.data_tlb.hitRate          nan                       # Hit rate for this TLB
system.gpu.shader_cores0.lsq.warpInstBufActive::samples            0                       # Histogram of number of active warp inst buffers at a given time
system.gpu.shader_cores0.lsq.warpInstBufActive::mean          nan                       # Histogram of number of active warp inst buffers at a given time
system.gpu.shader_cores0.lsq.warpInstBufActive::gmean          nan                       # Histogram of number of active warp inst buffers at a given time
system.gpu.shader_cores0.lsq.warpInstBufActive::stdev          nan                       # Histogram of number of active warp inst buffers at a given time
system.gpu.shader_cores0.lsq.warpInstBufActive::0            0                       # Histogram of number of active warp inst buffers at a given time
system.gpu.shader_cores0.lsq.warpInstBufActive::1            0                       # Histogram of number of active warp inst buffers at a given time
system.gpu.shader_cores0.lsq.warpInstBufActive::2            0                       # Histogram of number of active warp inst buffers at a given time
system.gpu.shader_cores0.lsq.warpInstBufActive::3            0                       # Histogram of number of active warp inst buffers at a given time
system.gpu.shader_cores0.lsq.warpInstBufActive::4            0                       # Histogram of number of active warp inst buffers at a given time
system.gpu.shader_cores0.lsq.warpInstBufActive::5            0                       # Histogram of number of active warp inst buffers at a given time
system.gpu.shader_cores0.lsq.warpInstBufActive::6            0                       # Histogram of number of active warp inst buffers at a given time
system.gpu.shader_cores0.lsq.warpInstBufActive::7            0                       # Histogram of number of active warp inst buffers at a given time
system.gpu.shader_cores0.lsq.warpInstBufActive::8            0                       # Histogram of number of active warp inst buffers at a given time
system.gpu.shader_cores0.lsq.warpInstBufActive::9            0                       # Histogram of number of active warp inst buffers at a given time
system.gpu.shader_cores0.lsq.warpInstBufActive::10            0                       # Histogram of number of active warp inst buffers at a given time
system.gpu.shader_cores0.lsq.warpInstBufActive::11            0                       # Histogram of number of active warp inst buffers at a given time
system.gpu.shader_cores0.lsq.warpInstBufActive::12            0                       # Histogram of number of active warp inst buffers at a given time
system.gpu.shader_cores0.lsq.warpInstBufActive::13            0                       # Histogram of number of active warp inst buffers at a given time
system.gpu.shader_cores0.lsq.warpInstBufActive::14            0                       # Histogram of number of active warp inst buffers at a given time
system.gpu.shader_cores0.lsq.warpInstBufActive::15            0                       # Histogram of number of active warp inst buffers at a given time
system.gpu.shader_cores0.lsq.warpInstBufActive::16            0                       # Histogram of number of active warp inst buffers at a given time
system.gpu.shader_cores0.lsq.warpInstBufActive::17            0                       # Histogram of number of active warp inst buffers at a given time
system.gpu.shader_cores0.lsq.warpInstBufActive::18            0                       # Histogram of number of active warp inst buffers at a given time
system.gpu.shader_cores0.lsq.warpInstBufActive::19            0                       # Histogram of number of active warp inst buffers at a given time
system.gpu.shader_cores0.lsq.warpInstBufActive::20            0                       # Histogram of number of active warp inst buffers at a given time
system.gpu.shader_cores0.lsq.warpInstBufActive::21            0                       # Histogram of number of active warp inst buffers at a given time
system.gpu.shader_cores0.lsq.warpInstBufActive::22            0                       # Histogram of number of active warp inst buffers at a given time
system.gpu.shader_cores0.lsq.warpInstBufActive::23            0                       # Histogram of number of active warp inst buffers at a given time
system.gpu.shader_cores0.lsq.warpInstBufActive::24            0                       # Histogram of number of active warp inst buffers at a given time
system.gpu.shader_cores0.lsq.warpInstBufActive::25            0                       # Histogram of number of active warp inst buffers at a given time
system.gpu.shader_cores0.lsq.warpInstBufActive::26            0                       # Histogram of number of active warp inst buffers at a given time
system.gpu.shader_cores0.lsq.warpInstBufActive::27            0                       # Histogram of number of active warp inst buffers at a given time
system.gpu.shader_cores0.lsq.warpInstBufActive::28            0                       # Histogram of number of active warp inst buffers at a given time
system.gpu.shader_cores0.lsq.warpInstBufActive::29            0                       # Histogram of number of active warp inst buffers at a given time
system.gpu.shader_cores0.lsq.warpInstBufActive::30            0                       # Histogram of number of active warp inst buffers at a given time
system.gpu.shader_cores0.lsq.warpInstBufActive::31            0                       # Histogram of number of active warp inst buffers at a given time
system.gpu.shader_cores0.lsq.warpInstBufActive::32            0                       # Histogram of number of active warp inst buffers at a given time
system.gpu.shader_cores0.lsq.warpInstBufActive::33            0                       # Histogram of number of active warp inst buffers at a given time
system.gpu.shader_cores0.lsq.warpInstBufActive::34            0                       # Histogram of number of active warp inst buffers at a given time
system.gpu.shader_cores0.lsq.warpInstBufActive::35            0                       # Histogram of number of active warp inst buffers at a given time
system.gpu.shader_cores0.lsq.warpInstBufActive::36            0                       # Histogram of number of active warp inst buffers at a given time
system.gpu.shader_cores0.lsq.warpInstBufActive::37            0                       # Histogram of number of active warp inst buffers at a given time
system.gpu.shader_cores0.lsq.warpInstBufActive::38            0                       # Histogram of number of active warp inst buffers at a given time
system.gpu.shader_cores0.lsq.warpInstBufActive::39            0                       # Histogram of number of active warp inst buffers at a given time
system.gpu.shader_cores0.lsq.warpInstBufActive::40            0                       # Histogram of number of active warp inst buffers at a given time
system.gpu.shader_cores0.lsq.warpInstBufActive::41            0                       # Histogram of number of active warp inst buffers at a given time
system.gpu.shader_cores0.lsq.warpInstBufActive::42            0                       # Histogram of number of active warp inst buffers at a given time
system.gpu.shader_cores0.lsq.warpInstBufActive::43            0                       # Histogram of number of active warp inst buffers at a given time
system.gpu.shader_cores0.lsq.warpInstBufActive::44            0                       # Histogram of number of active warp inst buffers at a given time
system.gpu.shader_cores0.lsq.warpInstBufActive::45            0                       # Histogram of number of active warp inst buffers at a given time
system.gpu.shader_cores0.lsq.warpInstBufActive::46            0                       # Histogram of number of active warp inst buffers at a given time
system.gpu.shader_cores0.lsq.warpInstBufActive::47            0                       # Histogram of number of active warp inst buffers at a given time
system.gpu.shader_cores0.lsq.warpInstBufActive::48            0                       # Histogram of number of active warp inst buffers at a given time
system.gpu.shader_cores0.lsq.warpInstBufActive::49            0                       # Histogram of number of active warp inst buffers at a given time
system.gpu.shader_cores0.lsq.warpInstBufActive::50            0                       # Histogram of number of active warp inst buffers at a given time
system.gpu.shader_cores0.lsq.warpInstBufActive::51            0                       # Histogram of number of active warp inst buffers at a given time
system.gpu.shader_cores0.lsq.warpInstBufActive::52            0                       # Histogram of number of active warp inst buffers at a given time
system.gpu.shader_cores0.lsq.warpInstBufActive::53            0                       # Histogram of number of active warp inst buffers at a given time
system.gpu.shader_cores0.lsq.warpInstBufActive::54            0                       # Histogram of number of active warp inst buffers at a given time
system.gpu.shader_cores0.lsq.warpInstBufActive::55            0                       # Histogram of number of active warp inst buffers at a given time
system.gpu.shader_cores0.lsq.warpInstBufActive::56            0                       # Histogram of number of active warp inst buffers at a given time
system.gpu.shader_cores0.lsq.warpInstBufActive::57            0                       # Histogram of number of active warp inst buffers at a given time
system.gpu.shader_cores0.lsq.warpInstBufActive::58            0                       # Histogram of number of active warp inst buffers at a given time
system.gpu.shader_cores0.lsq.warpInstBufActive::59            0                       # Histogram of number of active warp inst buffers at a given time
[...]
system.ruby.ST.miss_latency_hist::total        122006                      
system.ruby.IFETCH.latency_hist::bucket_size           64                      
system.ruby.IFETCH.latency_hist::max_bucket          639                      
system.ruby.IFETCH.latency_hist::samples    248328820                      
system.ruby.IFETCH.latency_hist::mean        1.000202                      
system.ruby.IFETCH.latency_hist::gmean       1.000005                      
system.ruby.IFETCH.latency_hist::stdev       0.220561                      
system.ruby.IFETCH.latency_hist          |   248328583    100.00%    100.00% |           0      0.00%    100.00% |         202      0.00%    100.00% |           0      0.00%    100.00% |           1      0.00%    100.00% |           8      0.00%    100.00% |          26      0.00%    100.00% |           0      0.00%    100.00% |           0      0.00%    100.00% |           0      0.00%    100.00%
system.ruby.IFETCH.latency_hist::total      248328820                      
system.ruby.IFETCH.hit_latency_hist::bucket_size            1                      
system.ruby.IFETCH.hit_latency_hist::max_bucket            9                      
system.ruby.IFETCH.hit_latency_hist::samples    248328583                      
system.ruby.IFETCH.hit_latency_hist::mean            1                      
system.ruby.IFETCH.hit_latency_hist::gmean            1                      
system.ruby.IFETCH.hit_latency_hist      |           0      0.00%      0.00% |   248328583    100.00%    100.00% |           0      0.00%    100.00% |           0      0.00%    100.00% |           0      0.00%    100.00% |           0      0.00%    100.00% |           0      0.00%    100.00% |           0      0.00%    100.00% |           0      0.00%    100.00% |           0      0.00%    100.00%
system.ruby.IFETCH.hit_latency_hist::total    248328583                      
system.ruby.IFETCH.miss_latency_hist::bucket_size           64                      
system.ruby.IFETCH.miss_latency_hist::max_bucket          639                      
system.ruby.IFETCH.miss_latency_hist::samples          237                      
system.ruby.IFETCH.miss_latency_hist::mean   212.531646                      
system.ruby.IFETCH.miss_latency_hist::gmean   202.250640                      
system.ruby.IFETCH.miss_latency_hist::stdev    79.078083                      
system.ruby.IFETCH.miss_latency_hist     |           0      0.00%      0.00% |           0      0.00%      0.00% |         202     85.23%     85.23% |           0      0.00%     85.23% |           1      0.42%     85.65% |           8      3.38%     89.03% |          26     10.97%    100.00% |           0      0.00%    100.00% |           0      0.00%    100.00% |           0      0.00%    100.00%
system.ruby.IFETCH.miss_latency_hist::total          237                      
system.ruby.RMW_Read.latency_hist::bucket_size            1                      
system.ruby.RMW_Read.latency_hist::max_bucket            9                      
system.ruby.RMW_Read.latency_hist::samples            2                      
system.ruby.RMW_Read.latency_hist::mean             1                      
system.ruby.RMW_Read.latency_hist::gmean            1                      
system.ruby.RMW_Read.latency_hist        |           0      0.00%      0.00% |           2    100.00%    100.00% |           0      0.00%    100.00% |           0      0.00%    100.00% |           0      0.00%    100.00% |           0      0.00%    100.00% |           0      0.00%    100.00% |           0      0.00%    100.00% |           0      0.00%    100.00% |           0      0.00%    100.00%
system.ruby.RMW_Read.latency_hist::total            2                      
system.ruby.RMW_Read.hit_latency_hist::bucket_size            1                      
system.ruby.RMW_Read.hit_latency_hist::max_bucket            9                      
system.ruby.RMW_Read.hit_latency_hist::samples            2                      
system.ruby.RMW_Read.hit_latency_hist::mean            1                      
system.ruby.RMW_Read.hit_latency_hist::gmean            1                      
system.ruby.RMW_Read.hit_latency_hist    |           0      0.00%      0.00% |           2    100.00%    100.00% |           0      0.00%    100.00% |           0      0.00%    100.00% |           0      0.00%    100.00% |           0      0.00%    100.00% |           0      0.00%    100.00% |           0      0.00%    100.00% |           0      0.00%    100.00% |           0      0.00%    100.00%
system.ruby.RMW_Read.hit_latency_hist::total            2                      
system.ruby.Directory_Controller.Fetch         122408      0.00%      0.00%
system.ruby.Directory_Controller.Data          122116      0.00%      0.00%
system.ruby.Directory_Controller.Memory_Data       122408      0.00%      0.00%
system.ruby.Directory_Controller.Memory_Ack       122116      0.00%      0.00%
system.ruby.Directory_Controller.CleanReplacement          292      0.00%      0.00%
system.ruby.Directory_Controller.I.Fetch       122408      0.00%      0.00%
system.ruby.Directory_Controller.M.Data        122116      0.00%      0.00%
system.ruby.Directory_Controller.M.CleanReplacement          292      0.00%      0.00%
system.ruby.Directory_Controller.IM.Memory_Data       122408      0.00%      0.00%
system.ruby.Directory_Controller.MI.Memory_Ack       122116      0.00%      0.00%
system.ruby.L1Cache_Controller.Load      |    51640782    100.00%    100.00% |           0      0.00%    100.00% |           0      0.00%    100.00% |           0      0.00%    100.00% |           0      0.00%    100.00% |           0      0.00%    100.00% |           0      0.00%    100.00% |           0      0.00%    100.00%
system.ruby.L1Cache_Controller.Load::total     51640782                      
system.ruby.L1Cache_Controller.Ifetch    |   248328820    100.00%    100.00% |           0      0.00%    100.00% |           0      0.00%    100.00% |           0      0.00%    100.00% |           0      0.00%    100.00% |           0      0.00%    100.00% |           0      0.00%    100.00% |           0      0.00%    100.00%
system.ruby.L1Cache_Controller.Ifetch::total    248328820                      
system.ruby.L1Cache_Controller.Store     |    34472566    100.00%    100.00% |           0      0.00%    100.00% |           0      0.00%    100.00% |           0      0.00%    100.00% |           0      0.00%    100.00% |           0      0.00%    100.00% |           0      0.00%    100.00% |           0      0.00%    100.00%
system.ruby.L1Cache_Controller.Store::total     34472566                      
system.ruby.L1Cache_Controller.Inv       |         442    100.00%    100.00% |           0      0.00%    100.00% |           0      0.00%    100.00% |           0      0.00%    100.00% |           0      0.00%    100.00% |           0      0.00%    100.00% |           0      0.00%    100.00% |           0      0.00%    100.00%
system.ruby.L1Cache_Controller.Inv::total          442                      
system.ruby.L1Cache_Controller.L1_Replacement |      121970    100.00%    100.00% |           0      0.00%    100.00% |           0      0.00%    100.00% |           0      0.00%    100.00% |           0      0.00%    100.00% |           0      0.00%    100.00% |           0      0.00%    100.00% |           0      0.00%    100.00%
system.ruby.L1Cache_Controller.L1_Replacement::total       121970                      
system.ruby.L1Cache_Controller.Data_Exclusive |         168    100.00%    100.00% |           0      0.00%    100.00% |           0      0.00%    100.00% |           0      0.00%    100.00% |           0      0.00%    100.00% |           0      0.00%    100.00% |           0      0.00%    100.00% |           0      0.00%    100.00%
system.ruby.L1Cache_Controller.Data_Exclusive::total          168                      
system.ruby.L1Cache_Controller.Data_all_Acks |      122243    100.00%    100.00% |           0      0.00%    100.00% |           0      0.00%    100.00% |           0      0.00%    100.00% |           0      0.00%    100.00% |           0      0.00%    100.00% |           0      0.00%    100.00% |           0      0.00%    100.00%
system.ruby.L1Cache_Controller.Data_all_Acks::total       122243                      
system.ruby.L1Cache_Controller.WB_Ack    |      121966    100.00%    100.00% |           0      0.00%    100.00% |           0      0.00%    100.00% |           0      0.00%    100.00% |           0      0.00%    100.00% |           0      0.00%    100.00% |           0      0.00%    100.00% |           0      0.00%    100.00%
system.ruby.L1Cache_Controller.WB_Ack::total       121966                      
system.ruby.L1Cache_Controller.NP.Load   |          12    100.00%    100.00% |           0      0.00%    100.00% |           0      0.00%    100.00% |           0      0.00%    100.00% |           0      0.00%    100.00% |           0      0.00%    100.00% |           0      0.00%    100.00% |           0      0.00%    100.00%
system.ruby.L1Cache_Controller.NP.Load::total           12                      
system.ruby.L1Cache_Controller.NP.Ifetch |           4    100.00%    100.00% |           0      0.00%    100.00% |           0      0.00%    100.00% |           0      0.00%    100.00% |           0      0.00%    100.00% |           0      0.00%    100.00% |           0      0.00%    100.00% |           0      0.00%    100.00%
system.ruby.L1Cache_Controller.NP.Ifetch::total            4                      
system.ruby.L1Cache_Controller.NP.Store  |      121954    100.00%    100.00% |           0      0.00%    100.00% |           0      0.00%    100.00% |           0      0.00%    100.00% |           0      0.00%    100.00% |           0      0.00%    100.00% |           0      0.00%    100.00% |           0      0.00%    100.00%
system.ruby.L1Cache_Controller.NP.Store::total       121954                      
system.ruby.L1Cache_Controller.I.Load    |         156    100.00%    100.00% |           0      0.00%    100.00% |           0      0.00%    100.00% |           0      0.00%    100.00% |           0      0.00%    100.00% |           0      0.00%    100.00% |           0      0.00%    100.00% |           0      0.00%    100.00%
system.ruby.L1Cache_Controller.I.Load::total          156                      
system.ruby.L1Cache_Controller.I.Ifetch  |         233    100.00%    100.00% |           0      0.00%    100.00% |           0      0.00%    100.00% |           0      0.00%    100.00% |           0      0.00%    100.00% |           0      0.00%    100.00% |           0      0.00%    100.00% |           0      0.00%    100.00%
system.ruby.L1Cache_Controller.I.Ifetch::total          233                      
system.ruby.L1Cache_Controller.I.Store   |          52    100.00%    100.00% |           0      0.00%    100.00% |           0      0.00%    100.00% |           0      0.00%    100.00% |           0      0.00%    100.00% |           0      0.00%    100.00% |           0      0.00%    100.00% |           0      0.00%    100.00%
system.ruby.L1Cache_Controller.I.Store::total           52                      
system.ruby.L1Cache_Controller.I.L1_Replacement |           4    100.00%    100.00% |           0      0.00%    100.00% |           0      0.00%    100.00% |           0      0.00%    100.00% |           0      0.00%    100.00% |           0      0.00%    100.00% |           0      0.00%    100.00% |           0      0.00%    100.00%
system.ruby.L1Cache_Controller.I.L1_Replacement::total            4                      
system.ruby.L1Cache_Controller.S.Ifetch  |   248328583    100.00%    100.00% |           0      0.00%    100.00% |           0      0.00%    100.00% |           0      0.00%    100.00% |           0      0.00%    100.00% |           0      0.00%    100.00% |           0      0.00%    100.00% |           0      0.00%    100.00%
system.ruby.L1Cache_Controller.S.Ifetch::total    248328583                      
system.ruby.L1Cache_Controller.S.Inv     |         234    100.00%    100.00% |           0      0.00%    100.00% |           0      0.00%    100.00% |           0      0.00%    100.00% |           0      0.00%    100.00% |           0      0.00%    100.00% |           0      0.00%    100.00% |           0      0.00%    100.00%
system.ruby.L1Cache_Controller.S.Inv::total          234                      
system.ruby.L1Cache_Controller.E.Load    |     3440243    100.00%    100.00% |           0      0.00%    100.00% |           0      0.00%    100.00% |           0      0.00%    100.00% |           0      0.00%    100.00% |           0      0.00%    100.00% |           0      0.00%    100.00% |           0      0.00%    100.00%
system.ruby.L1Cache_Controller.E.Load::total      3440243                      
system.ruby.L1Cache_Controller.E.Store   |         108    100.00%    100.00% |           0      0.00%    100.00% |           0      0.00%    100.00% |           0      0.00%    100.00% |           0      0.00%    100.00% |           0      0.00%    100.00% |           0      0.00%    100.00% |           0      0.00%    100.00%
system.ruby.L1Cache_Controller.E.Store::total          108                      
system.ruby.L1Cache_Controller.E.Inv     |          52    100.00%    100.00% |           0      0.00%    100.00% |           0      0.00%    100.00% |           0      0.00%    100.00% |           0      0.00%    100.00% |           0      0.00%    100.00% |           0      0.00%    100.00% |           0      0.00%    100.00%
system.ruby.L1Cache_Controller.E.Inv::total           52                      
system.ruby.L1Cache_Controller.E.L1_Replacement |           7    100.00%    100.00% |           0      0.00%    100.00% |           0      0.00%    100.00% |           0      0.00%    100.00% |           0      0.00%    100.00% |           0      0.00%    100.00% |           0      0.00%    100.00% |           0      0.00%    100.00%
system.ruby.L1Cache_Controller.E.L1_Replacement::total            7                      
system.ruby.L1Cache_Controller.M.Load    |    48200371    100.00%    100.00% |           0      0.00%    100.00% |           0      0.00%    100.00% |           0      0.00%    100.00% |           0      0.00%    100.00% |           0      0.00%    100.00% |           0      0.00%    100.00% |           0      0.00%    100.00%
system.ruby.L1Cache_Controller.M.Load::total     48200371                      
system.ruby.L1Cache_Controller.M.Store   |    34350452    100.00%    100.00% |           0      0.00%    100.00% |           0      0.00%    100.00% |           0      0.00%    100.00% |           0      0.00%    100.00% |           0      0.00%    100.00% |           0      0.00%    100.00% |           0      0.00%    100.00%
system.ruby.L1Cache_Controller.M.Store::total     34350452                      
system.ruby.L1Cache_Controller.M.Inv     |         156    100.00%    100.00% |           0      0.00%    100.00% |           0      0.00%    100.00% |           0      0.00%    100.00% |           0      0.00%    100.00% |           0      0.00%    100.00% |           0      0.00%    100.00% |           0      0.00%    100.00%
system.ruby.L1Cache_Controller.M.Inv::total          156                      
system.ruby.L1Cache_Controller.M.L1_Replacement |      121959    100.00%    100.00% |           0      0.00%    100.00% |           0      0.00%    100.00% |           0      0.00%    100.00% |           0      0.00%    100.00% |           0      0.00%    100.00% |           0      0.00%    100.00% |           0      0.00%    100.00%
system.ruby.L1Cache_Controller.M.L1_Replacement::total       121959                      
system.ruby.L1Cache_Controller.IS.Data_Exclusive |         168    100.00%    100.00% |           0      0.00%    100.00% |           0      0.00%    100.00% |           0      0.00%    100.00% |           0      0.00%    100.00% |           0      0.00%    100.00% |           0      0.00%    100.00% |           0      0.00%    100.00%
system.ruby.L1Cache_Controller.IS.Data_Exclusive::total          168                      
system.ruby.L1Cache_Controller.IS.Data_all_Acks |         237    100.00%    100.00% |           0      0.00%    100.00% |           0      0.00%    100.00% |           0      0.00%    100.00% |           0      0.00%    100.00% |           0      0.00%    100.00% |           0      0.00%    100.00% |           0      0.00%    100.00%
system.ruby.L1Cache_Controller.IS.Data_all_Acks::total          237                      
system.ruby.L1Cache_Controller.IM.Data_all_Acks |      122006    100.00%    100.00% |           0      0.00%    100.00% |           0      0.00%    100.00% |           0      0.00%    100.00% |           0      0.00%    100.00% |           0      0.00%    100.00% |           0      0.00%    100.00% |           0      0.00%    100.00%
system.ruby.L1Cache_Controller.IM.Data_all_Acks::total       122006                      
system.ruby.L1Cache_Controller.M_I.WB_Ack |      121966    100.00%    100.00% |           0      0.00%    100.00% |           0      0.00%    100.00% |           0      0.00%    100.00% |           0      0.00%    100.00% |           0      0.00%    100.00% |           0      0.00%    100.00% |           0      0.00%    100.00%
system.ruby.L1Cache_Controller.M_I.WB_Ack::total       121966                      
system.ruby.L2Cache_Controller.L1_GET_INSTR          237      0.00%      0.00%
system.ruby.L2Cache_Controller.L1_GETS            168      0.00%      0.00%
system.ruby.L2Cache_Controller.L1_GETX         122006      0.00%      0.00%
system.ruby.L2Cache_Controller.L1_PUTX         121966      0.00%      0.00%
system.ruby.L2Cache_Controller.L2_Replacement       121961      0.00%      0.00%
system.ruby.L2Cache_Controller.L2_Replacement_clean          447      0.00%      0.00%
system.ruby.L2Cache_Controller.Mem_Data        122408      0.00%      0.00%
system.ruby.L2Cache_Controller.Mem_Ack         122408      0.00%      0.00%
system.ruby.L2Cache_Controller.WB_Data            156      0.00%      0.00%
system.ruby.L2Cache_Controller.Ack_all            286      0.00%      0.00%
system.ruby.L2Cache_Controller.Exclusive_Unblock       122174      0.00%      0.00%
system.ruby.L2Cache_Controller.NP.L1_GET_INSTR          237      0.00%      0.00%
system.ruby.L2Cache_Controller.NP.L1_GETS          167      0.00%      0.00%
system.ruby.L2Cache_Controller.NP.L1_GETX       122004      0.00%      0.00%
system.ruby.L2Cache_Controller.SS.L2_Replacement_clean          234      0.00%      0.00%
system.ruby.L2Cache_Controller.M.L1_GETS            1      0.00%      0.00%
system.ruby.L2Cache_Controller.M.L1_GETX            2      0.00%      0.00%
system.ruby.L2Cache_Controller.M.L2_Replacement       121960      0.00%      0.00%
system.ruby.L2Cache_Controller.M.L2_Replacement_clean            6      0.00%      0.00%
system.ruby.L2Cache_Controller.MT.L1_PUTX       121966      0.00%      0.00%
system.ruby.L2Cache_Controller.MT.L2_Replacement            1      0.00%      0.00%
system.ruby.L2Cache_Controller.MT.L2_Replacement_clean          207      0.00%      0.00%
system.ruby.L2Cache_Controller.M_I.Mem_Ack       122408      0.00%      0.00%
system.ruby.L2Cache_Controller.MT_I.WB_Data            1      0.00%      0.00%
system.ruby.L2Cache_Controller.MCT_I.WB_Data          155      0.00%      0.00%
system.ruby.L2Cache_Controller.MCT_I.Ack_all           52      0.00%      0.00%
system.ruby.L2Cache_Controller.I_I.Ack_all          234      0.00%      0.00%
system.ruby.L2Cache_Controller.ISS.Mem_Data          167      0.00%      0.00%
system.ruby.L2Cache_Controller.IS.Mem_Data          237      0.00%      0.00%
system.ruby.L2Cache_Controller.IM.Mem_Data       122004      0.00%      0.00%
system.ruby.L2Cache_Controller.MT_MB.Exclusive_Unblock       122174      0.00%      0.00%

---------- End Simulation Statistics   ----------
