
---------- Begin Simulation Statistics ----------
sim_seconds                                  0.145737                       # Number of seconds simulated
sim_ticks                                145737197500                       # Number of ticks simulated
final_tick                               145744401000                       # Number of ticks from beginning of simulation (restored from checkpoints and never reset)
sim_freq                                 1000000000000                       # Frequency of simulated ticks
host_inst_rate                                  24391                       # Simulator instruction rate (inst/s)
host_op_rate                                    40730                       # Simulator op (including micro ops) rate (op/s)
host_tick_rate                               69191074                       # Simulator tick rate (ticks/s)
host_mem_usage                                1680600                       # Number of bytes of host memory used
host_seconds                                  2106.30                       # Real time elapsed on the host
sim_insts                                    51374534                       # Number of instructions simulated
sim_ops                                      85788684                       # Number of ops (including micro ops) simulated
system.voltage_domain.voltage                       1                       # Voltage in Volts
system.clk_domain.clock                          1000                       # Clock period in ticks
system.mem_ctrls.bytes_read::ruby.dir_cntrl0    276428416                       # Number of bytes read from this memory
system.mem_ctrls.bytes_read::total          276428416                       # Number of bytes read from this memory
system.mem_ctrls.bytes_written::ruby.dir_cntrl0    133874176                       # Number of bytes written to this memory
system.mem_ctrls.bytes_written::total       133874176                       # Number of bytes written to this memory
system.mem_ctrls.num_reads::ruby.dir_cntrl0      2159597                       # Number of read requests responded to by this memory
system.mem_ctrls.num_reads::total             2159597                       # Number of read requests responded to by this memory
system.mem_ctrls.num_writes::ruby.dir_cntrl0      1045892                       # Number of write requests responded to by this memory
system.mem_ctrls.num_writes::total            1045892                       # Number of write requests responded to by this memory
system.mem_ctrls.bw_read::ruby.dir_cntrl0   1896759515                       # Total read bandwidth from this memory (bytes/s)
system.mem_ctrls.bw_read::total            1896759515                       # Total read bandwidth from this memory (bytes/s)
system.mem_ctrls.bw_write::ruby.dir_cntrl0    918599907                       # Write bandwidth from this memory (bytes/s)
system.mem_ctrls.bw_write::total            918599907                       # Write bandwidth from this memory (bytes/s)
system.mem_ctrls.bw_total::ruby.dir_cntrl0   2815359421                       # Total bandwidth to/from this memory (bytes/s)
system.mem_ctrls.bw_total::total           2815359421                       # Total bandwidth to/from this memory (bytes/s)
system.mem_ctrls.readReqs                     2159597                       # Number of read requests accepted
system.mem_ctrls.writeReqs                    1045892                       # Number of write requests accepted
system.mem_ctrls.readBursts                   4319194                       # Number of DRAM read bursts, including those serviced by the write queue
system.mem_ctrls.writeBursts                  2091784                       # Number of DRAM write bursts, including those merged in the write queue
system.mem_ctrls.bytesReadDRAM              276165888                       # Total number of bytes read from DRAM
system.mem_ctrls.bytesReadWrQ                  262528                       # Total number of bytes read from write queue
system.mem_ctrls.bytesWritten               133845760                       # Total number of bytes written to DRAM
system.mem_ctrls.bytesReadSys               276428416                       # Total read bytes from the system interface side
system.mem_ctrls.bytesWrittenSys            133874176                       # Total written bytes from the system interface side
system.mem_ctrls.servicedByWrQ                   4102                       # Number of DRAM read bursts serviced by the write queue
system.mem_ctrls.mergedWrBursts                   413                       # Number of DRAM write bursts merged with an existing one
system.mem_ctrls.neitherReadNorWriteReqs            0                       # Number of requests that are neither read nor write
system.mem_ctrls.perBankRdBursts::0            267578                       # Per bank write bursts
system.mem_ctrls.perBankRdBursts::1            268108                       # Per bank write bursts
system.mem_ctrls.perBankRdBursts::2            272344                       # Per bank write bursts
system.mem_ctrls.perBankRdBursts::3            270531                       # Per bank write bursts
system.mem_ctrls.perBankRdBursts::4            266982                       # Per bank write bursts
system.mem_ctrls.perBankRdBursts::5            266553                       # Per bank write bursts
system.mem_ctrls.perBankRdBursts::6            264652                       # Per bank write bursts
system.mem_ctrls.perBankRdBursts::7            253971                       # Per bank write bursts
system.mem_ctrls.perBankRdBursts::8            264163                       # Per bank write bursts
system.mem_ctrls.perBankRdBursts::9            258348                       # Per bank write bursts
system.mem_ctrls.perBankRdBursts::10           291576                       # Per bank write bursts
system.mem_ctrls.perBankRdBursts::11           303157                       # Per bank write bursts
system.mem_ctrls.perBankRdBursts::12           266873                       # Per bank write bursts
system.mem_ctrls.perBankRdBursts::13           266772                       # Per bank write bursts
system.mem_ctrls.perBankRdBursts::14           266542                       # Per bank write bursts
system.mem_ctrls.perBankRdBursts::15           266942                       # Per bank write bursts
system.mem_ctrls.perBankWrBursts::0            131582                       # Per bank write bursts
system.mem_ctrls.perBankWrBursts::1            131992                       # Per bank write bursts
system.mem_ctrls.perBankWrBursts::2            131796                       # Per bank write bursts
system.mem_ctrls.perBankWrBursts::3            131840                       # Per bank write bursts
system.mem_ctrls.perBankWrBursts::4            131644                       # Per bank write bursts
system.mem_ctrls.perBankWrBursts::5            131702                       # Per bank write bursts
system.mem_ctrls.perBankWrBursts::6            131701                       # Per bank write bursts
system.mem_ctrls.perBankWrBursts::7            131640                       # Per bank write bursts
system.mem_ctrls.perBankWrBursts::8            131702                       # Per bank write bursts
system.mem_ctrls.perBankWrBursts::9            123580                       # Per bank write bursts
system.mem_ctrls.perBankWrBursts::10           123006                       # Per bank write bursts
system.mem_ctrls.perBankWrBursts::11           132110                       # Per bank write bursts
system.mem_ctrls.perBankWrBursts::12           132055                       # Per bank write bursts
system.mem_ctrls.perBankWrBursts::13           131612                       # Per bank write bursts
system.mem_ctrls.perBankWrBursts::14           131612                       # Per bank write bursts
system.mem_ctrls.perBankWrBursts::15           131766                       # Per bank write bursts
system.mem_ctrls.numRdRetry                   1623852                       # Number of times read queue was full causing retry
system.mem_ctrls.numWrRetry                     22360                       # Number of times write queue was full causing retry
system.mem_ctrls.totGap                  145737378000                       # Total gap between requests
system.mem_ctrls.readPktSize::0                     0                       # Read request sizes (log2)
system.mem_ctrls.readPktSize::1                     0                       # Read request sizes (log2)
system.mem_ctrls.readPktSize::2                     0                       # Read request sizes (log2)
system.mem_ctrls.readPktSize::3                     0                       # Read request sizes (log2)
system.mem_ctrls.readPktSize::4                     0                       # Read request sizes (log2)
system.mem_ctrls.readPktSize::5                     0                       # Read request sizes (log2)
system.mem_ctrls.readPktSize::6               4319194                       # Read request sizes (log2)
system.mem_ctrls.writePktSize::0                    0                       # Write request sizes (log2)
system.mem_ctrls.writePktSize::1                    0                       # Write request sizes (log2)
system.mem_ctrls.writePktSize::2                    0                       # Write request sizes (log2)
system.mem_ctrls.writePktSize::3                    0                       # Write request sizes (log2)
system.mem_ctrls.writePktSize::4                    0                       # Write request sizes (log2)
system.mem_ctrls.writePktSize::5                    0                       # Write request sizes (log2)
system.mem_ctrls.writePktSize::6              2091784                       # Write request sizes (log2)
system.mem_ctrls.rdQLenPdf::0                  334487                       # What read queue length does an incoming req see
system.mem_ctrls.rdQLenPdf::1                  344237                       # What read queue length does an incoming req see
system.mem_ctrls.rdQLenPdf::2                   83997                       # What read queue length does an incoming req see
system.mem_ctrls.rdQLenPdf::3                  107394                       # What read queue length does an incoming req see
system.mem_ctrls.rdQLenPdf::4                  168387                       # What read queue length does an incoming req see
system.mem_ctrls.rdQLenPdf::5                  194446                       # What read queue length does an incoming req see
system.mem_ctrls.rdQLenPdf::6                  202349                       # What read queue length does an incoming req see
system.mem_ctrls.rdQLenPdf::7                  190836                       # What read queue length does an incoming req see
system.mem_ctrls.rdQLenPdf::8                  154168                       # What read queue length does an incoming req see
system.mem_ctrls.rdQLenPdf::9                  130354                       # What read queue length does an incoming req see
system.mem_ctrls.rdQLenPdf::10                 111154                       # What read queue length does an incoming req see
system.mem_ctrls.rdQLenPdf::11                 102085                       # What read queue length does an incoming req see
system.mem_ctrls.rdQLenPdf::12                  83047                       # What read queue length does an incoming req see
system.mem_ctrls.rdQLenPdf::13                  73168                       # What read queue length does an incoming req see
system.mem_ctrls.rdQLenPdf::14                  47875                       # What read queue length does an incoming req see
system.mem_ctrls.rdQLenPdf::15                  47168                       # What read queue length does an incoming req see
system.mem_ctrls.rdQLenPdf::16                  14690                       # What read queue length does an incoming req see
system.mem_ctrls.rdQLenPdf::17                  15518                       # What read queue length does an incoming req see
system.mem_ctrls.rdQLenPdf::18                  16184                       # What read queue length does an incoming req see
system.mem_ctrls.rdQLenPdf::19                  17485                       # What read queue length does an incoming req see
system.mem_ctrls.rdQLenPdf::20                  17698                       # What read queue length does an incoming req see
system.mem_ctrls.rdQLenPdf::21                  18600                       # What read queue length does an incoming req see
system.mem_ctrls.rdQLenPdf::22                  18696                       # What read queue length does an incoming req see
system.mem_ctrls.rdQLenPdf::23                  19337                       # What read queue length does an incoming req see
system.mem_ctrls.rdQLenPdf::24                  19448                       # What read queue length does an incoming req see
system.mem_ctrls.rdQLenPdf::25                  20372                       # What read queue length does an incoming req see
system.mem_ctrls.rdQLenPdf::26                  20991                       # What read queue length does an incoming req see
system.mem_ctrls.rdQLenPdf::27                  21938                       # What read queue length does an incoming req see
system.mem_ctrls.rdQLenPdf::28                  22726                       # What read queue length does an incoming req see
system.mem_ctrls.rdQLenPdf::29                  23585                       # What read queue length does an incoming req see
system.mem_ctrls.rdQLenPdf::30                 841676                       # What read queue length does an incoming req see
system.mem_ctrls.rdQLenPdf::31                 830996                       # What read queue length does an incoming req see
system.mem_ctrls.wrQLenPdf::0                       1                       # What write queue length does an incoming req see
system.mem_ctrls.wrQLenPdf::1                       1                       # What write queue length does an incoming req see
system.mem_ctrls.wrQLenPdf::2                       1                       # What write queue length does an incoming req see
system.mem_ctrls.wrQLenPdf::3                       1                       # What write queue length does an incoming req see
system.mem_ctrls.wrQLenPdf::4                       1                       # What write queue length does an incoming req see
system.mem_ctrls.wrQLenPdf::5                       1                       # What write queue length does an incoming req see
system.mem_ctrls.wrQLenPdf::6                       1                       # What write queue length does an incoming req see
system.mem_ctrls.wrQLenPdf::7                       1                       # What write queue length does an incoming req see
system.mem_ctrls.wrQLenPdf::8                       1                       # What write queue length does an incoming req see
system.mem_ctrls.wrQLenPdf::9                       1                       # What write queue length does an incoming req see
system.mem_ctrls.wrQLenPdf::10                      1                       # What write queue length does an incoming req see
system.mem_ctrls.wrQLenPdf::11                      1                       # What write queue length does an incoming req see
system.mem_ctrls.wrQLenPdf::12                      1                       # What write queue length does an incoming req see
system.mem_ctrls.wrQLenPdf::13                      1                       # What write queue length does an incoming req see
system.mem_ctrls.wrQLenPdf::14                      1                       # What write queue length does an incoming req see
system.mem_ctrls.wrQLenPdf::15                   1185                       # What write queue length does an incoming req see
system.mem_ctrls.wrQLenPdf::16                   1419                       # What write queue length does an incoming req see
system.mem_ctrls.wrQLenPdf::17                  33546                       # What write queue length does an incoming req see
system.mem_ctrls.wrQLenPdf::18                  34552                       # What write queue length does an incoming req see
system.mem_ctrls.wrQLenPdf::19                  35252                       # What write queue length does an incoming req see
system.mem_ctrls.wrQLenPdf::20                  39055                       # What write queue length does an incoming req see
system.mem_ctrls.wrQLenPdf::21                  44380                       # What write queue length does an incoming req see
system.mem_ctrls.wrQLenPdf::22                  57301                       # What write queue length does an incoming req see
system.mem_ctrls.wrQLenPdf::23                  63667                       # What write queue length does an incoming req see
system.mem_ctrls.wrQLenPdf::24                  83559                       # What write queue length does an incoming req see
system.mem_ctrls.wrQLenPdf::25                  86163                       # What write queue length does an incoming req see
system.mem_ctrls.wrQLenPdf::26                  97203                       # What write queue length does an incoming req see
system.mem_ctrls.wrQLenPdf::27                 102670                       # What write queue length does an incoming req see
system.mem_ctrls.wrQLenPdf::28                 110546                       # What write queue length does an incoming req see
system.mem_ctrls.wrQLenPdf::29                 111205                       # What write queue length does an incoming req see
system.mem_ctrls.wrQLenPdf::30                 113805                       # What write queue length does an incoming req see
system.mem_ctrls.wrQLenPdf::31                 110768                       # What write queue length does an incoming req see
system.mem_ctrls.wrQLenPdf::32                 111537                       # What write queue length does an incoming req see
system.mem_ctrls.wrQLenPdf::33                  74236                       # What write queue length does an incoming req see
system.mem_ctrls.wrQLenPdf::34                  23378                       # What write queue length does an incoming req see
system.mem_ctrls.wrQLenPdf::35                  13878                       # What write queue length does an incoming req see
system.mem_ctrls.wrQLenPdf::36                   8870                       # What write queue length does an incoming req see
system.mem_ctrls.wrQLenPdf::37                   7015                       # What write queue length does an incoming req see
system.mem_ctrls.wrQLenPdf::38                   5044                       # What write queue length does an incoming req see
system.mem_ctrls.wrQLenPdf::39                   7522                       # What write queue length does an incoming req see
system.mem_ctrls.wrQLenPdf::40                   7436                       # What write queue length does an incoming req see
system.mem_ctrls.wrQLenPdf::41                  10804                       # What write queue length does an incoming req see
system.mem_ctrls.wrQLenPdf::42                  11311                       # What write queue length does an incoming req see
system.mem_ctrls.wrQLenPdf::43                  15946                       # What write queue length does an incoming req see
system.mem_ctrls.wrQLenPdf::44                  17069                       # What write queue length does an incoming req see
system.mem_ctrls.wrQLenPdf::45                  22372                       # What write queue length does an incoming req see
system.mem_ctrls.wrQLenPdf::46                  23735                       # What write queue length does an incoming req see
system.mem_ctrls.wrQLenPdf::47                  29634                       # What write queue length does an incoming req see
system.mem_ctrls.wrQLenPdf::48                  31802                       # What write queue length does an incoming req see
system.mem_ctrls.wrQLenPdf::49                  37961                       # What write queue length does an incoming req see
system.mem_ctrls.wrQLenPdf::50                  40732                       # What write queue length does an incoming req see
system.mem_ctrls.wrQLenPdf::51                  47244                       # What write queue length does an incoming req see
system.mem_ctrls.wrQLenPdf::52                  51553                       # What write queue length does an incoming req see
system.mem_ctrls.wrQLenPdf::53                  60113                       # What write queue length does an incoming req see
system.mem_ctrls.wrQLenPdf::54                  69864                       # What write queue length does an incoming req see
system.mem_ctrls.wrQLenPdf::55                  55528                       # What write queue length does an incoming req see
system.mem_ctrls.wrQLenPdf::56                  47624                       # What write queue length does an incoming req see
system.mem_ctrls.wrQLenPdf::57                  33705                       # What write queue length does an incoming req see
system.mem_ctrls.wrQLenPdf::58                  25813                       # What write queue length does an incoming req see
system.mem_ctrls.wrQLenPdf::59                  17370                       # What write queue length does an incoming req see
system.mem_ctrls.wrQLenPdf::60                  13265                       # What write queue length does an incoming req see
system.mem_ctrls.wrQLenPdf::61                   9077                       # What write queue length does an incoming req see
system.mem_ctrls.wrQLenPdf::62                  19204                       # What write queue length does an incoming req see
system.mem_ctrls.wrQLenPdf::63                  14438                       # What write queue length does an incoming req see
system.mem_ctrls.bytesPerActivate::samples      1559495                       # Bytes accessed per row activation
system.mem_ctrls.bytesPerActivate::mean    262.914649                       # Bytes accessed per row activation
system.mem_ctrls.bytesPerActivate::gmean   189.636779                       # Bytes accessed per row activation
system.mem_ctrls.bytesPerActivate::stdev   276.972899                       # Bytes accessed per row activation
system.mem_ctrls.bytesPerActivate::0-127        37051      2.38%      2.38% # Bytes accessed per row activation
system.mem_ctrls.bytesPerActivate::128-255      1017115     65.22%     67.60% # Bytes accessed per row activation
system.mem_ctrls.bytesPerActivate::256-383       260752     16.72%     84.32% # Bytes accessed per row activation
system.mem_ctrls.bytesPerActivate::384-511        20795      1.33%     85.65% # Bytes accessed per row activation
system.mem_ctrls.bytesPerActivate::512-639        28654      1.84%     87.49% # Bytes accessed per row activation
system.mem_ctrls.bytesPerActivate::640-767        17418      1.12%     88.60% # Bytes accessed per row activation
system.mem_ctrls.bytesPerActivate::768-895        16011      1.03%     89.63% # Bytes accessed per row activation
system.mem_ctrls.bytesPerActivate::896-1023        16607      1.06%     90.70% # Bytes accessed per row activation
system.mem_ctrls.bytesPerActivate::1024-1151       145092      9.30%    100.00% # Bytes accessed per row activation
system.mem_ctrls.bytesPerActivate::total      1559495                       # Bytes accessed per row activation
system.mem_ctrls.rdPerTurnAround::samples       130343                       # Reads before turning the bus around for writes
system.mem_ctrls.rdPerTurnAround::mean      33.097197                       # Reads before turning the bus around for writes
system.mem_ctrls.rdPerTurnAround::gmean     22.479890                       # Reads before turning the bus around for writes
system.mem_ctrls.rdPerTurnAround::stdev    113.797949                       # Reads before turning the bus around for writes
system.mem_ctrls.rdPerTurnAround::0-1023       129888     99.65%     99.65% # Reads before turning the bus around for writes
system.mem_ctrls.rdPerTurnAround::1024-2047          450      0.35%    100.00% # Reads before turning the bus around for writes
system.mem_ctrls.rdPerTurnAround::2048-3071            1      0.00%    100.00% # Reads before turning the bus around for writes
system.mem_ctrls.rdPerTurnAround::3072-4095            1      0.00%    100.00% # Reads before turning the bus around for writes
system.mem_ctrls.rdPerTurnAround::7168-8191            2      0.00%    100.00% # Reads before turning the bus around for writes
system.mem_ctrls.rdPerTurnAround::23552-24575            1      0.00%    100.00% # Reads before turning the bus around for writes
system.mem_ctrls.rdPerTurnAround::total        130343                       # Reads before turning the bus around for writes
system.mem_ctrls.wrPerTurnAround::samples       130343                       # Writes before turning the bus around for reads
system.mem_ctrls.wrPerTurnAround::mean      16.044897                       # Writes before turning the bus around for reads
system.mem_ctrls.wrPerTurnAround::gmean     16.037125                       # Writes before turning the bus around for reads
system.mem_ctrls.wrPerTurnAround::stdev      0.612654                       # Writes before turning the bus around for reads
system.mem_ctrls.wrPerTurnAround::16           128760     98.79%     98.79% # Writes before turning the bus around for reads
system.mem_ctrls.wrPerTurnAround::17               59      0.05%     98.83% # Writes before turning the bus around for reads
system.mem_ctrls.wrPerTurnAround::18             1178      0.90%     99.73% # Writes before turning the bus around for reads
system.mem_ctrls.wrPerTurnAround::19               34      0.03%     99.76% # Writes before turning the bus around for reads
system.mem_ctrls.wrPerTurnAround::20               42      0.03%     99.79% # Writes before turning the bus around for reads
system.mem_ctrls.wrPerTurnAround::21               13      0.01%     99.80% # Writes before turning the bus around for reads
system.mem_ctrls.wrPerTurnAround::22               28      0.02%     99.82% # Writes before turning the bus around for reads
system.mem_ctrls.wrPerTurnAround::23               15      0.01%     99.84% # Writes before turning the bus around for reads
system.mem_ctrls.wrPerTurnAround::24               36      0.03%     99.86% # Writes before turning the bus around for reads
system.mem_ctrls.wrPerTurnAround::25               10      0.01%     99.87% # Writes before turning the bus around for reads
system.mem_ctrls.wrPerTurnAround::26               32      0.02%     99.90% # Writes before turning the bus around for reads
system.mem_ctrls.wrPerTurnAround::27                8      0.01%     99.90% # Writes before turning the bus around for reads
system.mem_ctrls.wrPerTurnAround::28               28      0.02%     99.92% # Writes before turning the bus around for reads
system.mem_ctrls.wrPerTurnAround::29                6      0.00%     99.93% # Writes before turning the bus around for reads
system.mem_ctrls.wrPerTurnAround::30               22      0.02%     99.94% # Writes before turning the bus around for reads
system.mem_ctrls.wrPerTurnAround::31                4      0.00%     99.95% # Writes before turning the bus around for reads
system.mem_ctrls.wrPerTurnAround::32               27      0.02%     99.97% # Writes before turning the bus around for reads
system.mem_ctrls.wrPerTurnAround::33                4      0.00%     99.97% # Writes before turning the bus around for reads
system.mem_ctrls.wrPerTurnAround::34                8      0.01%     99.98% # Writes before turning the bus around for reads
system.mem_ctrls.wrPerTurnAround::35                1      0.00%     99.98% # Writes before turning the bus around for reads
system.mem_ctrls.wrPerTurnAround::36               10      0.01%     99.99% # Writes before turning the bus around for reads
system.mem_ctrls.wrPerTurnAround::37                2      0.00%     99.99% # Writes before turning the bus around for reads
system.mem_ctrls.wrPerTurnAround::38               13      0.01%    100.00% # Writes before turning the bus around for reads
system.mem_ctrls.wrPerTurnAround::39                2      0.00%    100.00% # Writes before turning the bus around for reads
system.mem_ctrls.wrPerTurnAround::40                1      0.00%    100.00% # Writes before turning the bus around for reads
system.mem_ctrls.wrPerTurnAround::total        130343                       # Writes before turning the bus around for reads
system.mem_ctrls.totQLat                 556938583306                       # Total ticks spent queuing
system.mem_ctrls.totMemAccLat            637846558306                       # Total ticks spent from burst creation until serviced by the DRAM
system.mem_ctrls.totBusLat                21575460000                       # Total ticks spent in databus transfers
system.mem_ctrls.avgQLat                    129067.60                       # Average queueing delay per DRAM burst
system.mem_ctrls.avgBusLat                    5000.00                       # Average bus latency per DRAM burst
system.mem_ctrls.avgMemAccLat               147817.60                       # Average memory access latency per DRAM burst
system.mem_ctrls.avgRdBW                      1894.96                       # Average DRAM read bandwidth in MiByte/s
system.mem_ctrls.avgWrBW                       918.40                       # Average achieved write bandwidth in MiByte/s
system.mem_ctrls.avgRdBWSys                   1896.76                       # Average system read bandwidth in MiByte/s
system.mem_ctrls.avgWrBWSys                    918.60                       # Average system write bandwidth in MiByte/s
system.mem_ctrls.peakBW                      12800.00                       # Theoretical peak bandwidth in MiByte/s
system.mem_ctrls.busUtil                        21.98                       # Data bus utilization in percentage
system.mem_ctrls.busUtilRead                    14.80                       # Data bus utilization in percentage for reads
system.mem_ctrls.busUtilWrite                    7.18                       # Data bus utilization in percentage for writes
system.mem_ctrls.avgRdQLen                       6.21                       # Average read queue length when enqueuing
system.mem_ctrls.avgWrQLen                      29.86                       # Average write queue length when enqueuing
system.mem_ctrls.readRowHits                  3197118                       # Number of row buffer hits during reads
system.mem_ctrls.writeRowHits                 1649827                       # Number of row buffer hits during writes
system.mem_ctrls.readRowHitRate                 74.09                       # Row buffer hit rate for reads
system.mem_ctrls.writeRowHitRate                78.89                       # Row buffer hit rate for writes
system.mem_ctrls.avgGap                      45464.94                       # Average gap between requests
system.mem_ctrls.pageHitRate                    75.66                       # Row buffer hit rate, read and write combined
system.mem_ctrls_0.actEnergy               5819748480                       # Energy for activate commands per rank (pJ)
system.mem_ctrls_0.preEnergy               3175458000                       # Energy for precharge commands per rank (pJ)
system.mem_ctrls_0.readEnergy             16620201000                       # Energy for read commands per rank (pJ)
system.mem_ctrls_0.writeEnergy             6829252560                       # Energy for write commands per rank (pJ)
system.mem_ctrls_0.refreshEnergy           9519226080                       # Energy for refresh commands per rank (pJ)
system.mem_ctrls_0.actBackEnergy          69222726315                       # Energy for active background per rank (pJ)
system.mem_ctrls_0.preBackEnergy          26724282750                       # Energy for precharge background per rank (pJ)
system.mem_ctrls_0.totalEnergy           137910895185                       # Total energy per rank (pJ)
system.mem_ctrls_0.averagePower            946.258984                       # Core power per rank (mW)
system.mem_ctrls_0.memoryStateTime::IDLE  43789365027                       # Time in different power states
system.mem_ctrls_0.memoryStateTime::REF    4866680000                       # Time in different power states
system.mem_ctrls_0.memoryStateTime::PRE_PDN            0                       # Time in different power states
system.mem_ctrls_0.memoryStateTime::ACT   97087247223                       # Time in different power states
system.mem_ctrls_0.memoryStateTime::ACT_PDN            0                       # Time in different power states
system.mem_ctrls_1.actEnergy               5970139560                       # Energy for activate commands per rank (pJ)
system.mem_ctrls_1.preEnergy               3257516625                       # Energy for precharge commands per rank (pJ)
system.mem_ctrls_1.readEnergy             17038639800                       # Energy for read commands per rank (pJ)
system.mem_ctrls_1.writeEnergy             6722630640                       # Energy for write commands per rank (pJ)
system.mem_ctrls_1.refreshEnergy           9519226080                       # Energy for refresh commands per rank (pJ)
system.mem_ctrls_1.actBackEnergy          67485684375                       # Energy for active background per rank (pJ)
system.mem_ctrls_1.preBackEnergy          28248003750                       # Energy for precharge background per rank (pJ)
system.mem_ctrls_1.totalEnergy           138241840830                       # Total energy per rank (pJ)
system.mem_ctrls_1.averagePower            948.529728                       # Core power per rank (mW)
system.mem_ctrls_1.memoryStateTime::IDLE  46318284784                       # Time in different power states
system.mem_ctrls_1.memoryStateTime::REF    4866680000                       # Time in different power states
system.mem_ctrls_1.memoryStateTime::PRE_PDN            0                       # Time in different power states
system.mem_ctrls_1.memoryStateTime::ACT   94558594216                       # Time in different power states
system.mem_ctrls_1.memoryStateTime::ACT_PDN            0                       # Time in different power states
system.ruby_clk_domain.clock                      500                       # Clock period in ticks
system.ruby.phys_mem.bytes_read::gpu.ce      50380812                       # Number of bytes read from this memory
system.ruby.phys_mem.bytes_read::gpu.shader_cores0.data      9783456                       # Number of bytes read from this memory
system.ruby.phys_mem.bytes_read::gpu.shader_cores0.inst          576                       # Number of bytes read from this memory
system.ruby.phys_mem.bytes_read::gpu.shader_cores1.data      9745600                       # Number of bytes read from this memory
system.ruby.phys_mem.bytes_read::gpu.shader_cores1.inst          576                       # Number of bytes read from this memory
system.ruby.phys_mem.bytes_read::gpu.shader_cores2.data      9799904                       # Number of bytes read from this memory
system.ruby.phys_mem.bytes_read::gpu.shader_cores2.inst          576                       # Number of bytes read from this memory
system.ruby.phys_mem.bytes_read::gpu.shader_cores3.data      9730496                       # Number of bytes read from this memory
system.ruby.phys_mem.bytes_read::gpu.shader_cores3.inst          576                       # Number of bytes read from this memory
system.ruby.phys_mem.bytes_read::switch_cpus0.inst    531340432                       # Number of bytes read from this memory
system.ruby.phys_mem.bytes_read::switch_cpus0.data     56200086                       # Number of bytes read from this memory
system.ruby.phys_mem.bytes_read::total      676983090                       # Number of bytes read from this memory
system.ruby.phys_mem.bytes_inst_read::gpu.shader_cores0.inst          576                       # Number of instructions bytes read from this memory
system.ruby.phys_mem.bytes_inst_read::gpu.shader_cores1.inst          576                       # Number of instructions bytes read from this memory
system.ruby.phys_mem.bytes_inst_read::gpu.shader_cores2.inst          576                       # Number of instructions bytes read from this memory
system.ruby.phys_mem.bytes_inst_read::gpu.shader_cores3.inst          576                       # Number of instructions bytes read from this memory
system.ruby.phys_mem.bytes_inst_read::switch_cpus0.inst    531340432                       # Number of instructions bytes read from this memory
system.ruby.phys_mem.bytes_inst_read::total    531342736                       # Number of instructions bytes read from this memory
system.ruby.phys_mem.bytes_written::gpu.ce     50380812                       # Number of bytes written to this memory
system.ruby.phys_mem.bytes_written::gpu.shader_cores0.data      4202496                       # Number of bytes written to this memory
system.ruby.phys_mem.bytes_written::gpu.shader_cores1.data      4183040                       # Number of bytes written to this memory
system.ruby.phys_mem.bytes_written::gpu.shader_cores2.data      4209664                       # Number of bytes written to this memory
system.ruby.phys_mem.bytes_written::gpu.shader_cores3.data      4182016                       # Number of bytes written to this memory
system.ruby.phys_mem.bytes_written::switch_cpus0.data     37552369                       # Number of bytes written to this memory
system.ruby.phys_mem.bytes_written::total    104710397                       # Number of bytes written to this memory
system.ruby.phys_mem.num_reads::gpu.ce         393603                       # Number of read requests responded to by this memory
system.ruby.phys_mem.num_reads::gpu.shader_cores0.data       172382                       # Number of read requests responded to by this memory
system.ruby.phys_mem.num_reads::gpu.shader_cores0.inst           36                       # Number of read requests responded to by this memory
system.ruby.phys_mem.num_reads::gpu.shader_cores1.data       171367                       # Number of read requests responded to by this memory
system.ruby.phys_mem.num_reads::gpu.shader_cores1.inst           36                       # Number of read requests responded to by this memory
system.ruby.phys_mem.num_reads::gpu.shader_cores2.data       172683                       # Number of read requests responded to by this memory
system.ruby.phys_mem.num_reads::gpu.shader_cores2.inst           36                       # Number of read requests responded to by this memory
system.ruby.phys_mem.num_reads::gpu.shader_cores3.data       171696                       # Number of read requests responded to by this memory
system.ruby.phys_mem.num_reads::gpu.shader_cores3.inst           36                       # Number of read requests responded to by this memory
system.ruby.phys_mem.num_reads::switch_cpus0.inst     66417554                       # Number of read requests responded to by this memory
system.ruby.phys_mem.num_reads::switch_cpus0.data     13587023                       # Number of read requests responded to by this memory
system.ruby.phys_mem.num_reads::total        81086452                       # Number of read requests responded to by this memory
system.ruby.phys_mem.num_writes::gpu.ce        393603                       # Number of write requests responded to by this memory
system.ruby.phys_mem.num_writes::gpu.shader_cores0.data        96457                       # Number of write requests responded to by this memory
system.ruby.phys_mem.num_writes::gpu.shader_cores1.data        95809                       # Number of write requests responded to by this memory
system.ruby.phys_mem.num_writes::gpu.shader_cores2.data        96628                       # Number of write requests responded to by this memory
system.ruby.phys_mem.num_writes::gpu.shader_cores3.data        96130                       # Number of write requests responded to by this memory
system.ruby.phys_mem.num_writes::switch_cpus0.data      6946312                       # Number of write requests responded to by this memory
system.ruby.phys_mem.num_writes::total        7724939                       # Number of write requests responded to by this memory
system.ruby.phys_mem.bw_read::gpu.ce        345696314                       # Total read bandwidth from this memory (bytes/s)
system.ruby.phys_mem.bw_read::gpu.shader_cores0.data     67130809                       # Total read bandwidth from this memory (bytes/s)
system.ruby.phys_mem.bw_read::gpu.shader_cores0.inst         3952                       # Total read bandwidth from this memory (bytes/s)
system.ruby.phys_mem.bw_read::gpu.shader_cores1.data     66871054                       # Total read bandwidth from this memory (bytes/s)
system.ruby.phys_mem.bw_read::gpu.shader_cores1.inst         3952                       # Total read bandwidth from this memory (bytes/s)
system.ruby.phys_mem.bw_read::gpu.shader_cores2.data     67243670                       # Total read bandwidth from this memory (bytes/s)
system.ruby.phys_mem.bw_read::gpu.shader_cores2.inst         3952                       # Total read bandwidth from this memory (bytes/s)
system.ruby.phys_mem.bw_read::gpu.shader_cores3.data     66767415                       # Total read bandwidth from this memory (bytes/s)
system.ruby.phys_mem.bw_read::gpu.shader_cores3.inst         3952                       # Total read bandwidth from this memory (bytes/s)
system.ruby.phys_mem.bw_read::switch_cpus0.inst   3645880675                       # Total read bandwidth from this memory (bytes/s)
system.ruby.phys_mem.bw_read::switch_cpus0.data    385626230                       # Total read bandwidth from this memory (bytes/s)
system.ruby.phys_mem.bw_read::total        4645231977                       # Total read bandwidth from this memory (bytes/s)
system.ruby.phys_mem.bw_inst_read::gpu.shader_cores0.inst         3952                       # Instruction read bandwidth from this memory (bytes/s)
system.ruby.phys_mem.bw_inst_read::gpu.shader_cores1.inst         3952                       # Instruction read bandwidth from this memory (bytes/s)
system.ruby.phys_mem.bw_inst_read::gpu.shader_cores2.inst         3952                       # Instruction read bandwidth from this memory (bytes/s)
system.ruby.phys_mem.bw_inst_read::gpu.shader_cores3.inst         3952                       # Instruction read bandwidth from this memory (bytes/s)
system.ruby.phys_mem.bw_inst_read::switch_cpus0.inst   3645880675                       # Instruction read bandwidth from this memory (bytes/s)
system.ruby.phys_mem.bw_inst_read::total   3645896484                       # Instruction read bandwidth from this memory (bytes/s)
system.ruby.phys_mem.bw_write::gpu.ce       345696314                       # Write bandwidth from this memory (bytes/s)
system.ruby.phys_mem.bw_write::gpu.shader_cores0.data     28836125                       # Write bandwidth from this memory (bytes/s)
system.ruby.phys_mem.bw_write::gpu.shader_cores1.data     28702624                       # Write bandwidth from this memory (bytes/s)
system.ruby.phys_mem.bw_write::gpu.shader_cores2.data     28885309                       # Write bandwidth from this memory (bytes/s)
system.ruby.phys_mem.bw_write::gpu.shader_cores3.data     28695598                       # Write bandwidth from this memory (bytes/s)
system.ruby.phys_mem.bw_write::switch_cpus0.data    257671821                       # Write bandwidth from this memory (bytes/s)
system.ruby.phys_mem.bw_write::total        718487790                       # Write bandwidth from this memory (bytes/s)
system.ruby.phys_mem.bw_total::gpu.ce       691392628                       # Total bandwidth to/from this memory (bytes/s)
system.ruby.phys_mem.bw_total::gpu.shader_cores0.data     95966934                       # Total bandwidth to/from this memory (bytes/s)
system.ruby.phys_mem.bw_total::gpu.shader_cores0.inst         3952                       # Total bandwidth to/from this memory (bytes/s)
system.ruby.phys_mem.bw_total::gpu.shader_cores1.data     95573678                       # Total bandwidth to/from this memory (bytes/s)
system.ruby.phys_mem.bw_total::gpu.shader_cores1.inst         3952                       # Total bandwidth to/from this memory (bytes/s)
system.ruby.phys_mem.bw_total::gpu.shader_cores2.data     96128979                       # Total bandwidth to/from this memory (bytes/s)
system.ruby.phys_mem.bw_total::gpu.shader_cores2.inst         3952                       # Total bandwidth to/from this memory (bytes/s)
system.ruby.phys_mem.bw_total::gpu.shader_cores3.data     95463013                       # Total bandwidth to/from this memory (bytes/s)
system.ruby.phys_mem.bw_total::gpu.shader_cores3.inst         3952                       # Total bandwidth to/from this memory (bytes/s)
system.ruby.phys_mem.bw_total::switch_cpus0.inst   3645880675                       # Total bandwidth to/from this memory (bytes/s)
system.ruby.phys_mem.bw_total::switch_cpus0.data    643298050                       # Total bandwidth to/from this memory (bytes/s)
system.ruby.phys_mem.bw_total::total       5363719767                       # Total bandwidth to/from this memory (bytes/s)
system.cpu_voltage_domain.voltage                   1                       # Voltage in Volts
system.cpu_clk_domain.clock                       500                       # Clock period in ticks
system.cpu0.apic_clk_domain.clock                8000                       # Clock period in ticks
system.cpu0.workload.num_syscalls                  30                       # Number of system calls
system.cpu0.numCycles                               0                       # number of cpu cycles simulated
system.cpu0.numWorkItemsStarted                     0                       # number of work items this cpu started
system.cpu0.numWorkItemsCompleted                   0                       # number of work items this cpu completed
system.cpu0.committedInsts                          0                       # Number of instructions committed
system.cpu0.committedOps                            0                       # Number of ops (including micro ops) committed
system.cpu0.num_int_alu_accesses                    0                       # Number of integer alu accesses
system.cpu0.num_fp_alu_accesses                     0                       # Number of float alu accesses
system.cpu0.num_func_calls                          0                       # number of times a function call or return occured
system.cpu0.num_conditional_control_insts            0                       # number of instructions that are conditional controls
system.cpu0.num_int_insts                           0                       # number of integer instructions
system.cpu0.num_fp_insts                            0                       # number of float instructions
system.cpu0.num_int_register_reads                  0                       # number of times the integer registers were read
system.cpu0.num_int_register_writes                 0                       # number of times the integer registers were written
system.cpu0.num_fp_register_reads                   0                       # number of times the floating registers were read
system.cpu0.num_fp_register_writes                  0                       # number of times the floating registers were written
system.cpu0.num_mem_refs                            0                       # number of memory refs
system.cpu0.num_load_insts                          0                       # Number of load instructions
system.cpu0.num_store_insts                         0                       # Number of store instructions
system.cpu0.num_idle_cycles                         0                       # Number of idle cycles
system.cpu0.num_busy_cycles                         0                       # Number of busy cycles
system.cpu0.not_idle_fraction                       1                       # Percentage of non-idle cycles
system.cpu0.idle_fraction                           0                       # Percentage of idle cycles
system.cpu0.op_class::No_OpClass                    0                       # Class of executed instruction
system.cpu0.op_class::IntAlu                        0                       # Class of executed instruction
system.cpu0.op_class::IntMult                       0                       # Class of executed instruction
system.cpu0.op_class::IntDiv                        0                       # Class of executed instruction
system.cpu0.op_class::FloatAdd                      0                       # Class of executed instruction
system.cpu0.op_class::FloatCmp                      0                       # Class of executed instruction
system.cpu0.op_class::FloatCvt                      0                       # Class of executed instruction
system.cpu0.op_class::FloatMult                     0                       # Class of executed instruction
system.cpu0.op_class::FloatDiv                      0                       # Class of executed instruction
system.cpu0.op_class::FloatSqrt                     0                       # Class of executed instruction
system.cpu0.op_class::SimdAdd                       0                       # Class of executed instruction
system.cpu0.op_class::SimdAddAcc                    0                       # Class of executed instruction
system.cpu0.op_class::SimdAlu                       0                       # Class of executed instruction
system.cpu0.op_class::SimdCmp                       0                       # Class of executed instruction
system.cpu0.op_class::SimdCvt                       0                       # Class of executed instruction
system.cpu0.op_class::SimdMisc                      0                       # Class of executed instruction
system.cpu0.op_class::SimdMult                      0                       # Class of executed instruction
system.cpu0.op_class::SimdMultAcc                   0                       # Class of executed instruction
system.cpu0.op_class::SimdShift                     0                       # Class of executed instruction
system.cpu0.op_class::SimdShiftAcc                  0                       # Class of executed instruction
system.cpu0.op_class::SimdSqrt                      0                       # Class of executed instruction
system.cpu0.op_class::SimdFloatAdd                  0                       # Class of executed instruction
system.cpu0.op_class::SimdFloatAlu                  0                       # Class of executed instruction
system.cpu0.op_class::SimdFloatCmp                  0                       # Class of executed instruction
system.cpu0.op_class::SimdFloatCvt                  0                       # Class of executed instruction
system.cpu0.op_class::SimdFloatDiv                  0                       # Class of executed instruction
system.cpu0.op_class::SimdFloatMisc                 0                       # Class of executed instruction
system.cpu0.op_class::SimdFloatMult                 0                       # Class of executed instruction
system.cpu0.op_class::SimdFloatMultAcc              0                       # Class of executed instruction
system.cpu0.op_class::SimdFloatSqrt                 0                       # Class of executed instruction
system.cpu0.op_class::MemRead                       0                       # Class of executed instruction
system.cpu0.op_class::MemWrite                      0                       # Class of executed instruction
system.cpu0.op_class::IprAccess                     0                       # Class of executed instruction
system.cpu0.op_class::InstPrefetch                  0                       # Class of executed instruction
system.cpu0.op_class::total                         0                       # Class of executed instruction
system.cpu1.apic_clk_domain.clock                8000                       # Clock period in ticks
system.cpu1.numCycles                               0                       # number of cpu cycles simulated
system.cpu1.numWorkItemsStarted                     0                       # number of work items this cpu started
system.cpu1.numWorkItemsCompleted                   0                       # number of work items this cpu completed
system.cpu1.committedInsts                          0                       # Number of instructions committed
system.cpu1.committedOps                            0                       # Number of ops (including micro ops) committed
system.cpu1.num_int_alu_accesses                    0                       # Number of integer alu accesses
system.cpu1.num_fp_alu_accesses                     0                       # Number of float alu accesses
system.cpu1.num_func_calls                          0                       # number of times a function call or return occured
system.cpu1.num_conditional_control_insts            0                       # number of instructions that are conditional controls
system.cpu1.num_int_insts                           0                       # number of integer instructions
system.cpu1.num_fp_insts                            0                       # number of float instructions
system.cpu1.num_int_register_reads                  0                       # number of times the integer registers were read
system.cpu1.num_int_register_writes                 0                       # number of times the integer registers were written
system.cpu1.num_fp_register_reads                   0                       # number of times the floating registers were read
system.cpu1.num_fp_register_writes                  0                       # number of times the floating registers were written
system.cpu1.num_mem_refs                            0                       # number of memory refs
system.cpu1.num_load_insts                          0                       # Number of load instructions
system.cpu1.num_store_insts                         0                       # Number of store instructions
system.cpu1.num_idle_cycles                         0                       # Number of idle cycles
system.cpu1.num_busy_cycles                         0                       # Number of busy cycles
system.cpu1.not_idle_fraction                       0                       # Percentage of non-idle cycles
system.cpu1.idle_fraction                           1                       # Percentage of idle cycles
system.cpu1.op_class::No_OpClass                    0                       # Class of executed instruction
system.cpu1.op_class::IntAlu                        0                       # Class of executed instruction
system.cpu1.op_class::IntMult                       0                       # Class of executed instruction
system.cpu1.op_class::IntDiv                        0                       # Class of executed instruction
system.cpu1.op_class::FloatAdd                      0                       # Class of executed instruction
system.cpu1.op_class::FloatCmp                      0                       # Class of executed instruction
system.cpu1.op_class::FloatCvt                      0                       # Class of executed instruction
system.cpu1.op_class::FloatMult                     0                       # Class of executed instruction
system.cpu1.op_class::FloatDiv                      0                       # Class of executed instruction
system.cpu1.op_class::FloatSqrt                     0                       # Class of executed instruction
system.cpu1.op_class::SimdAdd                       0                       # Class of executed instruction
system.cpu1.op_class::SimdAddAcc                    0                       # Class of executed instruction
system.cpu1.op_class::SimdAlu                       0                       # Class of executed instruction
system.cpu1.op_class::SimdCmp                       0                       # Class of executed instruction
system.cpu1.op_class::SimdCvt                       0                       # Class of executed instruction
system.cpu1.op_class::SimdMisc                      0                       # Class of executed instruction
system.cpu1.op_class::SimdMult                      0                       # Class of executed instruction
system.cpu1.op_class::SimdMultAcc                   0                       # Class of executed instruction
system.cpu1.op_class::SimdShift                     0                       # Class of executed instruction
system.cpu1.op_class::SimdShiftAcc                  0                       # Class of executed instruction
system.cpu1.op_class::SimdSqrt                      0                       # Class of executed instruction
system.cpu1.op_class::SimdFloatAdd                  0                       # Class of executed instruction
system.cpu1.op_class::SimdFloatAlu                  0                       # Class of executed instruction
system.cpu1.op_class::SimdFloatCmp                  0                       # Class of executed instruction
system.cpu1.op_class::SimdFloatCvt                  0                       # Class of executed instruction
system.cpu1.op_class::SimdFloatDiv                  0                       # Class of executed instruction
system.cpu1.op_class::SimdFloatMisc                 0                       # Class of executed instruction
system.cpu1.op_class::SimdFloatMult                 0                       # Class of executed instruction
system.cpu1.op_class::SimdFloatMultAcc              0                       # Class of executed instruction
system.cpu1.op_class::SimdFloatSqrt                 0                       # Class of executed instruction
system.cpu1.op_class::MemRead                       0                       # Class of executed instruction
system.cpu1.op_class::MemWrite                      0                       # Class of executed instruction
system.cpu1.op_class::IprAccess                     0                       # Class of executed instruction
system.cpu1.op_class::InstPrefetch                  0                       # Class of executed instruction
system.cpu1.op_class::total                         0                       # Class of executed instruction
system.gpu.clk_domain.voltage_domain.voltage            1                       # Voltage in Volts
system.gpu.clk_domain.clock                      1429                       # Clock period in ticks
system.gpu.dram_wrapper.clk_domain.clock          541                       # Clock period in ticks
system.gpu.icnt_wrapper.clk_domain.clock         2858                       # Clock period in ticks
system.ruby.delayHist::bucket_size                128                       # delay histogram for all message
system.ruby.delayHist::max_bucket                1279                       # delay histogram for all message
system.ruby.delayHist::samples               15289550                       # delay histogram for all message
system.ruby.delayHist::mean                  6.898161                       # delay histogram for all message
system.ruby.delayHist::stdev                23.924419                       # delay histogram for all message
system.ruby.delayHist                    |    15151560     99.10%     99.10% |      115478      0.76%     99.85% |       19525      0.13%     99.98% |        2529      0.02%    100.00% |         418      0.00%    100.00% |          37      0.00%    100.00% |           3      0.00%    100.00% |           0      0.00%    100.00% |           0      0.00%    100.00% |           0      0.00%    100.00% # delay histogram for all message
system.ruby.delayHist::total                 15289550                       # delay histogram for all message
system.ruby.outstanding_req_hist::bucket_size           16                      
system.ruby.outstanding_req_hist::max_bucket          159                      
system.ruby.outstanding_req_hist::samples     88811391                      
system.ruby.outstanding_req_hist::mean       1.944390                      
system.ruby.outstanding_req_hist::gmean      1.076445                      
system.ruby.outstanding_req_hist::stdev      7.516676                      
system.ruby.outstanding_req_hist         |    87366392     98.37%     98.37% |      244052      0.27%     98.65% |      134650      0.15%     98.80% |       90295      0.10%     98.90% |      854788      0.96%     99.86% |       33089      0.04%     99.90% |       88125      0.10%    100.00% |           0      0.00%    100.00% |           0      0.00%    100.00% |           0      0.00%    100.00%
system.ruby.outstanding_req_hist::total      88811391                      
system.ruby.latency_hist::bucket_size            4096                      
system.ruby.latency_hist::max_bucket            40959                      
system.ruby.latency_hist::samples            88811391                      
system.ruby.latency_hist::mean              74.747133                      
system.ruby.latency_hist::gmean              1.190464                      
system.ruby.latency_hist::stdev            809.092802                      
system.ruby.latency_hist                 |    88213556     99.33%     99.33% |      422823      0.48%     99.80% |       55659      0.06%     99.87% |       52305      0.06%     99.92% |       42793      0.05%     99.97% |       20743      0.02%    100.00% |        3405      0.00%    100.00% |         107      0.00%    100.00% |           0      0.00%    100.00% |           0      0.00%    100.00%
system.ruby.latency_hist::total              88811391                      
system.ruby.hit_latency_hist::bucket_size            1                      
system.ruby.hit_latency_hist::max_bucket            9                      
system.ruby.hit_latency_hist::samples        86634803                      
system.ruby.hit_latency_hist::mean           1.000001                      
system.ruby.hit_latency_hist::gmean          1.000001                      
system.ruby.hit_latency_hist::stdev          0.001910                      
system.ruby.hit_latency_hist             |           0      0.00%      0.00% |    86634735    100.00%    100.00% |          30      0.00%    100.00% |          25      0.00%    100.00% |           7      0.00%    100.00% |           3      0.00%    100.00% |           3      0.00%    100.00% |           0      0.00%    100.00% |           0      0.00%    100.00% |           0      0.00%    100.00%
system.ruby.hit_latency_hist::total          86634803                      
system.ruby.miss_latency_hist::bucket_size         4096                      
system.ruby.miss_latency_hist::max_bucket        40959                      
system.ruby.miss_latency_hist::samples        2176588                      
system.ruby.miss_latency_hist::mean       3010.106603                      
system.ruby.miss_latency_hist::gmean      1228.680535                      
system.ruby.miss_latency_hist::stdev      4228.254366                      
system.ruby.miss_latency_hist            |     1578753     72.53%     72.53% |      422823     19.43%     91.96% |       55659      2.56%     94.52% |       52305      2.40%     96.92% |       42793      1.97%     98.89% |       20743      0.95%     99.84% |        3405      0.16%    100.00% |         107      0.00%    100.00% |           0      0.00%    100.00% |           0      0.00%    100.00%
system.ruby.miss_latency_hist::total          2176588                      
system.gpu.shader_mmu.numPagefaults                 0                       # Number of Pagefaults
system.gpu.shader_mmu.numPagewalks             174231                       # Number of Pagewalks
system.gpu.shader_mmu.totalRequests            174231                       # Total number of requests
system.gpu.shader_mmu.l2hits                        0                       # Hits in the shared L2
system.gpu.shader_mmu.prefetchHits                  0                       # Number of prefetch hits
system.gpu.shader_mmu.numPrefetches                 0                       # Number of prefetchs
system.gpu.shader_mmu.prefetchFaults                0                       # Number of faults caused by prefetches
system.gpu.shader_mmu.pagefaultLatency::samples            0                       # Latency to complete the pagefault
system.gpu.shader_mmu.pagefaultLatency::mean          nan                       # Latency to complete the pagefault
system.gpu.shader_mmu.pagefaultLatency::gmean          nan                       # Latency to complete the pagefault
system.gpu.shader_mmu.pagefaultLatency::stdev          nan                       # Latency to complete the pagefault
system.gpu.shader_mmu.pagefaultLatency::0            0                       # Latency to complete the pagefault
system.gpu.shader_mmu.pagefaultLatency::1            0                       # Latency to complete the pagefault
system.gpu.shader_mmu.pagefaultLatency::2            0                       # Latency to complete the pagefault
system.gpu.shader_mmu.pagefaultLatency::3            0                       # Latency to complete the pagefault
system.gpu.shader_mmu.pagefaultLatency::4            0                       # Latency to complete the pagefault
system.gpu.shader_mmu.pagefaultLatency::5            0                       # Latency to complete the pagefault
system.gpu.shader_mmu.pagefaultLatency::6            0                       # Latency to complete the pagefault
system.gpu.shader_mmu.pagefaultLatency::7            0                       # Latency to complete the pagefault
system.gpu.shader_mmu.pagefaultLatency::8            0                       # Latency to complete the pagefault
system.gpu.shader_mmu.pagefaultLatency::9            0                       # Latency to complete the pagefault
system.gpu.shader_mmu.pagefaultLatency::10            0                       # Latency to complete the pagefault
system.gpu.shader_mmu.pagefaultLatency::11            0                       # Latency to complete the pagefault
system.gpu.shader_mmu.pagefaultLatency::12            0                       # Latency to complete the pagefault
system.gpu.shader_mmu.pagefaultLatency::13            0                       # Latency to complete the pagefault
system.gpu.shader_mmu.pagefaultLatency::14            0                       # Latency to complete the pagefault
system.gpu.shader_mmu.pagefaultLatency::15            0                       # Latency to complete the pagefault
system.gpu.shader_mmu.pagefaultLatency::16            0                       # Latency to complete the pagefault
system.gpu.shader_mmu.pagefaultLatency::17            0                       # Latency to complete the pagefault
system.gpu.shader_mmu.pagefaultLatency::18            0                       # Latency to complete the pagefault
system.gpu.shader_mmu.pagefaultLatency::19            0                       # Latency to complete the pagefault
system.gpu.shader_mmu.pagefaultLatency::20            0                       # Latency to complete the pagefault
system.gpu.shader_mmu.pagefaultLatency::21            0                       # Latency to complete the pagefault
system.gpu.shader_mmu.pagefaultLatency::22            0                       # Latency to complete the pagefault
system.gpu.shader_mmu.pagefaultLatency::23            0                       # Latency to complete the pagefault
system.gpu.shader_mmu.pagefaultLatency::24            0                       # Latency to complete the pagefault
system.gpu.shader_mmu.pagefaultLatency::25            0                       # Latency to complete the pagefault
system.gpu.shader_mmu.pagefaultLatency::26            0                       # Latency to complete the pagefault
system.gpu.shader_mmu.pagefaultLatency::27            0                       # Latency to complete the pagefault
system.gpu.shader_mmu.pagefaultLatency::28            0                       # Latency to complete the pagefault
system.gpu.shader_mmu.pagefaultLatency::29            0                       # Latency to complete the pagefault
system.gpu.shader_mmu.pagefaultLatency::30            0                       # Latency to complete the pagefault
system.gpu.shader_mmu.pagefaultLatency::31            0                       # Latency to complete the pagefault
system.gpu.shader_mmu.pagefaultLatency::total            0                       # Latency to complete the pagefault
system.gpu.shader_mmu.concurrentWalks::samples       174231                       # Number of outstanding walks
system.gpu.shader_mmu.concurrentWalks::mean            0                       # Number of outstanding walks
system.gpu.shader_mmu.concurrentWalks::gmean            0                       # Number of outstanding walks
system.gpu.shader_mmu.concurrentWalks::stdev            0                       # Number of outstanding walks
system.gpu.shader_mmu.concurrentWalks::0       174231    100.00%    100.00% # Number of outstanding walks
system.gpu.shader_mmu.concurrentWalks::1            0      0.00%    100.00% # Number of outstanding walks
system.gpu.shader_mmu.concurrentWalks::2            0      0.00%    100.00% # Number of outstanding walks
system.gpu.shader_mmu.concurrentWalks::3            0      0.00%    100.00% # Number of outstanding walks
system.gpu.shader_mmu.concurrentWalks::4            0      0.00%    100.00% # Number of outstanding walks
system.gpu.shader_mmu.concurrentWalks::5            0      0.00%    100.00% # Number of outstanding walks
system.gpu.shader_mmu.concurrentWalks::6            0      0.00%    100.00% # Number of outstanding walks
system.gpu.shader_mmu.concurrentWalks::7            0      0.00%    100.00% # Number of outstanding walks
system.gpu.shader_mmu.concurrentWalks::8            0      0.00%    100.00% # Number of outstanding walks
system.gpu.shader_mmu.concurrentWalks::9            0      0.00%    100.00% # Number of outstanding walks
system.gpu.shader_mmu.concurrentWalks::10            0      0.00%    100.00% # Number of outstanding walks
system.gpu.shader_mmu.concurrentWalks::11            0      0.00%    100.00% # Number of outstanding walks
system.gpu.shader_mmu.concurrentWalks::12            0      0.00%    100.00% # Number of outstanding walks
system.gpu.shader_mmu.concurrentWalks::13            0      0.00%    100.00% # Number of outstanding walks
system.gpu.shader_mmu.concurrentWalks::14            0      0.00%    100.00% # Number of outstanding walks
system.gpu.shader_mmu.concurrentWalks::15            0      0.00%    100.00% # Number of outstanding walks
system.gpu.shader_mmu.concurrentWalks::total       174231                       # Number of outstanding walks
system.gpu.shader_mmu.pagewalkLatency::samples       174231                       # Latency to complete the pagewalk
system.gpu.shader_mmu.pagewalkLatency::mean            0                       # Latency to complete the pagewalk
system.gpu.shader_mmu.pagewalkLatency::gmean            0                       # Latency to complete the pagewalk
system.gpu.shader_mmu.pagewalkLatency::stdev            0                       # Latency to complete the pagewalk
system.gpu.shader_mmu.pagewalkLatency::0       174231    100.00%    100.00% # Latency to complete the pagewalk
system.gpu.shader_mmu.pagewalkLatency::1            0      0.00%    100.00% # Latency to complete the pagewalk
system.gpu.shader_mmu.pagewalkLatency::2            0      0.00%    100.00% # Latency to complete the pagewalk
system.gpu.shader_mmu.pagewalkLatency::3            0      0.00%    100.00% # Latency to complete the pagewalk
system.gpu.shader_mmu.pagewalkLatency::4            0      0.00%    100.00% # Latency to complete the pagewalk
system.gpu.shader_mmu.pagewalkLatency::5            0      0.00%    100.00% # Latency to complete the pagewalk
system.gpu.shader_mmu.pagewalkLatency::6            0      0.00%    100.00% # Latency to complete the pagewalk
system.gpu.shader_mmu.pagewalkLatency::7            0      0.00%    100.00% # Latency to complete the pagewalk
system.gpu.shader_mmu.pagewalkLatency::8            0      0.00%    100.00% # Latency to complete the pagewalk
system.gpu.shader_mmu.pagewalkLatency::9            0      0.00%    100.00% # Latency to complete the pagewalk
system.gpu.shader_mmu.pagewalkLatency::10            0      0.00%    100.00% # Latency to complete the pagewalk
system.gpu.shader_mmu.pagewalkLatency::11            0      0.00%    100.00% # Latency to complete the pagewalk
system.gpu.shader_mmu.pagewalkLatency::12            0      0.00%    100.00% # Latency to complete the pagewalk
system.gpu.shader_mmu.pagewalkLatency::13            0      0.00%    100.00% # Latency to complete the pagewalk
system.gpu.shader_mmu.pagewalkLatency::14            0      0.00%    100.00% # Latency to complete the pagewalk
system.gpu.shader_mmu.pagewalkLatency::15            0      0.00%    100.00% # Latency to complete the pagewalk
system.gpu.shader_mmu.pagewalkLatency::16            0      0.00%    100.00% # Latency to complete the pagewalk
system.gpu.shader_mmu.pagewalkLatency::17            0      0.00%    100.00% # Latency to complete the pagewalk
system.gpu.shader_mmu.pagewalkLatency::18            0      0.00%    100.00% # Latency to complete the pagewalk
system.gpu.shader_mmu.pagewalkLatency::19            0      0.00%    100.00% # Latency to complete the pagewalk
system.gpu.shader_mmu.pagewalkLatency::20            0      0.00%    100.00% # Latency to complete the pagewalk
system.gpu.shader_mmu.pagewalkLatency::21            0      0.00%    100.00% # Latency to complete the pagewalk
system.gpu.shader_mmu.pagewalkLatency::22            0      0.00%    100.00% # Latency to complete the pagewalk
system.gpu.shader_mmu.pagewalkLatency::23            0      0.00%    100.00% # Latency to complete the pagewalk
system.gpu.shader_mmu.pagewalkLatency::24            0      0.00%    100.00% # Latency to complete the pagewalk
system.gpu.shader_mmu.pagewalkLatency::25            0      0.00%    100.00% # Latency to complete the pagewalk
system.gpu.shader_mmu.pagewalkLatency::26            0      0.00%    100.00% # Latency to complete the pagewalk
system.gpu.shader_mmu.pagewalkLatency::27            0      0.00%    100.00% # Latency to complete the pagewalk
system.gpu.shader_mmu.pagewalkLatency::28            0      0.00%    100.00% # Latency to complete the pagewalk
system.gpu.shader_mmu.pagewalkLatency::29            0      0.00%    100.00% # Latency to complete the pagewalk
system.gpu.shader_mmu.pagewalkLatency::30            0      0.00%    100.00% # Latency to complete the pagewalk
system.gpu.shader_mmu.pagewalkLatency::31            0      0.00%    100.00% # Latency to complete the pagewalk
system.gpu.shader_mmu.pagewalkLatency::total       174231                       # Latency to complete the pagewalk
system.gpu.kernels_started                        255                       # Number of kernels started
system.gpu.kernels_completed                      255                       # Number of kernels completed
system.gpu.ce.device_dtb.hits                       0                       # Number of hits in this TLB
system.gpu.ce.device_dtb.misses                     0                       # Number of misses in this TLB
system.gpu.ce.device_dtb.hitRate                  nan                       # Hit rate for this TLB
system.gpu.ce.host_dtb.hits                    219372                       # Number of hits in this TLB
system.gpu.ce.host_dtb.misses                  174231                       # Number of misses in this TLB
system.gpu.ce.host_dtb.hitRate               0.557343                       # Hit rate for this TLB
system.gpu.ce.numOperations                         3                       # Number of copy/memset operations
system.gpu.ce.opBytesRead                    50380812                       # Number of copy bytes read
system.gpu.ce.opBytesWritten                 50380812                       # Number of copy/memset bytes written
system.gpu.ce.opTimeTicks                 15527487341                       # Total time spent in copy/memset operations
system.gpu.shader_cores0.itb.hits                   0                       # Number of hits in this TLB
system.gpu.shader_cores0.itb.misses                 0                       # Number of misses in this TLB
system.gpu.shader_cores0.itb.hitRate              nan                       # Hit rate for this TLB
system.gpu.shader_cores0.local_loads                0                       # Number of loads from local space
system.gpu.shader_cores0.local_stores               0                       # Number of stores to local space
system.gpu.shader_cores0.shared_loads         5253120                       # Number of loads from shared space
system.gpu.shader_cores0.shared_stores        2236680                       # Number of stores to shared space
system.gpu.shader_cores0.param_kernel_loads      1345920                       # Number of loads from kernel parameter space
system.gpu.shader_cores0.param_local_loads            0                       # Number of loads from local parameter space
system.gpu.shader_cores0.param_local_stores            0                       # Number of stores to local parameter space
system.gpu.shader_cores0.const_loads                0                       # Number of loads from constant space
system.gpu.shader_cores0.tex_loads                  0                       # Number of loads from texture space
system.gpu.shader_cores0.global_loads         1186056                       # Number of loads from global space
system.gpu.shader_cores0.global_stores        1050624                       # Number of stores to global space
system.gpu.shader_cores0.surf_loads                 0                       # Number of loads from surface space
system.gpu.shader_cores0.generic_loads              0                       # Number of loads from generic spaces (global, shared, local)
system.gpu.shader_cores0.generic_stores             0                       # Number of stores to generic spaces (global, shared, local)
system.gpu.shader_cores0.inst_cache_requests           36                       # Number of instruction cache requests sent
system.gpu.shader_cores0.inst_cache_retries            0                       # Number of instruction cache retries
system.gpu.shader_cores0.inst_counts::0             0                       # Inst counts: 1: ALU, 2: MAD, 3: CTRL, 4: SFU, 5: MEM, 6: TEX, 7: NOP
system.gpu.shader_cores0.inst_counts::1      35634648                       # Inst counts: 1: ALU, 2: MAD, 3: CTRL, 4: SFU, 5: MEM, 6: TEX, 7: NOP
system.gpu.shader_cores0.inst_counts::2             0                       # Inst counts: 1: ALU, 2: MAD, 3: CTRL, 4: SFU, 5: MEM, 6: TEX, 7: NOP
system.gpu.shader_cores0.inst_counts::3       6299640                       # Inst counts: 1: ALU, 2: MAD, 3: CTRL, 4: SFU, 5: MEM, 6: TEX, 7: NOP
system.gpu.shader_cores0.inst_counts::4             0                       # Inst counts: 1: ALU, 2: MAD, 3: CTRL, 4: SFU, 5: MEM, 6: TEX, 7: NOP
system.gpu.shader_cores0.inst_counts::5      11072400                       # Inst counts: 1: ALU, 2: MAD, 3: CTRL, 4: SFU, 5: MEM, 6: TEX, 7: NOP
system.gpu.shader_cores0.inst_counts::6             0                       # Inst counts: 1: ALU, 2: MAD, 3: CTRL, 4: SFU, 5: MEM, 6: TEX, 7: NOP
system.gpu.shader_cores0.inst_counts::7             0                       # Inst counts: 1: ALU, 2: MAD, 3: CTRL, 4: SFU, 5: MEM, 6: TEX, 7: NOP
[...]
system.ruby.L1Cache_Controller.I.Store::total          326                      
system.ruby.L1Cache_Controller.I.L1_Replacement |         374      0.10%      0.10% |           0      0.00%      0.10% |       98232     24.97%     25.06% |       97387     24.75%     49.81% |       98830     25.12%     74.93% |       98620     25.07%    100.00% |           0      0.00%    100.00% |           9      0.00%    100.00%
system.ruby.L1Cache_Controller.I.L1_Replacement::total       393452                      
system.ruby.L1Cache_Controller.S.Load    |           0      0.00%      0.00% |           0      0.00%      0.00% |           1     14.29%     14.29% |           1     14.29%     28.57% |           2     28.57%     57.14% |           3     42.86%    100.00% |           0      0.00%    100.00% |           0      0.00%    100.00%
system.ruby.L1Cache_Controller.S.Load::total            7                      
system.ruby.L1Cache_Controller.S.Ifetch  |    66414976    100.00%    100.00% |           0      0.00%    100.00% |           0      0.00%    100.00% |           0      0.00%    100.00% |           0      0.00%    100.00% |           0      0.00%    100.00% |           0      0.00%    100.00% |           0      0.00%    100.00%
system.ruby.L1Cache_Controller.S.Ifetch::total     66414976                      
system.ruby.L1Cache_Controller.S.Inv     |        2330     28.74%     28.74% |           0      0.00%     28.74% |        1404     17.32%     46.05% |        1443     17.80%     63.85% |        1510     18.62%     82.47% |        1421     17.53%    100.00% |           0      0.00%    100.00% |           0      0.00%    100.00%
system.ruby.L1Cache_Controller.S.Inv::total         8108                      
system.ruby.L1Cache_Controller.S.L1_Replacement |         152      5.15%      5.15% |           0      0.00%      5.15% |         678     22.96%     28.11% |         687     23.26%     51.37% |         684     23.16%     74.53% |         752     25.47%    100.00% |           0      0.00%    100.00% |           0      0.00%    100.00%
system.ruby.L1Cache_Controller.S.L1_Replacement::total         2953                      
system.ruby.L1Cache_Controller.E.Load    |    12640690     99.99%     99.99% |           0      0.00%     99.99% |         265      0.00%     99.99% |         257      0.00%    100.00% |         268      0.00%    100.00% |         260      0.00%    100.00% |           0      0.00%    100.00% |           0      0.00%    100.00%
system.ruby.L1Cache_Controller.E.Load::total     12641740                      
system.ruby.L1Cache_Controller.E.Store   |         389    100.00%    100.00% |           0      0.00%    100.00% |           0      0.00%    100.00% |           0      0.00%    100.00% |           0      0.00%    100.00% |           0      0.00%    100.00% |           0      0.00%    100.00% |           0      0.00%    100.00%
system.ruby.L1Cache_Controller.E.Store::total          389                      
system.ruby.L1Cache_Controller.E.Inv     |        4050      1.48%      1.48% |           0      0.00%      1.48% |       67016     24.54%     26.03% |       66700     24.43%     50.46% |       67574     24.75%     75.21% |       67699     24.79%    100.00% |           0      0.00%    100.00% |           0      0.00%    100.00%
system.ruby.L1Cache_Controller.E.Inv::total       273039                      
system.ruby.L1Cache_Controller.E.L1_Replacement |       41255      4.88%      4.88% |           0      0.00%      4.88% |      103061     12.20%     17.09% |      102322     12.12%     29.20% |      102692     12.16%     41.36% |      101609     12.03%     53.39% |           0      0.00%     53.39% |      393603     46.61%    100.00%
system.ruby.L1Cache_Controller.E.L1_Replacement::total       844542                      
system.ruby.L1Cache_Controller.E.Fwd_GETX |           0      0.00%      0.00% |           0      0.00%      0.00% |           1     16.67%     16.67% |           2     33.33%     50.00% |           2     33.33%     83.33% |           1     16.67%    100.00% |           0      0.00%    100.00% |           0      0.00%    100.00%
system.ruby.L1Cache_Controller.E.Fwd_GETX::total            6                      
system.ruby.L1Cache_Controller.E.Fwd_GETS |           0      0.00%      0.00% |           0      0.00%      0.00% |         540     25.19%     25.19% |         504     23.51%     48.69% |         532     24.81%     73.51% |         568     26.49%    100.00% |           0      0.00%    100.00% |           0      0.00%    100.00%
system.ruby.L1Cache_Controller.E.Fwd_GETS::total         2144                      
system.ruby.L1Cache_Controller.M.Load    |      824415    100.00%    100.00% |           0      0.00%    100.00% |           9      0.00%    100.00% |           9      0.00%    100.00% |           9      0.00%    100.00% |           9      0.00%    100.00% |           0      0.00%    100.00% |           0      0.00%    100.00%
system.ruby.L1Cache_Controller.M.Load::total       824451                      
system.ruby.L1Cache_Controller.M.Store   |     6753240    100.00%    100.00% |           0      0.00%    100.00% |           0      0.00%    100.00% |           0      0.00%    100.00% |           0      0.00%    100.00% |           0      0.00%    100.00% |           0      0.00%    100.00% |           0      0.00%    100.00%
system.ruby.L1Cache_Controller.M.Store::total      6753240                      
system.ruby.L1Cache_Controller.M.Inv     |         863      0.71%      0.71% |           0      0.00%      0.71% |       30417     25.02%     25.73% |       29849     24.55%     50.28% |       30336     24.95%     75.23% |       30095     24.75%     99.99% |           0      0.00%     99.99% |          17      0.01%    100.00%
system.ruby.L1Cache_Controller.M.Inv::total       121577                      
system.ruby.L1Cache_Controller.M.L1_Replacement |      268215     28.96%     28.96% |           0      0.00%     28.96% |       66015      7.13%     36.09% |       65933      7.12%     43.21% |       66261      7.16%     50.37% |       66005      7.13%     57.50% |           0      0.00%     57.50% |      393586     42.50%    100.00%
system.ruby.L1Cache_Controller.M.L1_Replacement::total       926015                      
system.ruby.L1Cache_Controller.M.Fwd_GETS |           0      0.00%      0.00% |           0      0.00%      0.00% |          25     22.12%     22.12% |          27     23.89%     46.02% |          31     27.43%     73.45% |          30     26.55%    100.00% |           0      0.00%    100.00% |           0      0.00%    100.00%
system.ruby.L1Cache_Controller.M.Fwd_GETS::total          113                      
system.ruby.L1Cache_Controller.IS.Inv    |          34     50.00%     50.00% |           0      0.00%     50.00% |           8     11.76%     61.76% |           9     13.24%     75.00% |           9     13.24%     88.24% |           8     11.76%    100.00% |           0      0.00%    100.00% |           0      0.00%    100.00%
system.ruby.L1Cache_Controller.IS.Inv::total           68                      
system.ruby.L1Cache_Controller.IS.L1_Replacement |           0      0.00%      0.00% |           0      0.00%      0.00% |      612923      8.35%      8.35% |      616149      8.40%     16.75% |      615131      8.38%     25.14% |      610041      8.32%     33.45% |           0      0.00%     33.45% |     4882385     66.55%    100.00%
system.ruby.L1Cache_Controller.IS.L1_Replacement::total      7336629                      
system.ruby.L1Cache_Controller.IS.Data_Exclusive |       45898      4.10%      4.10% |           0      0.00%      4.10% |      170618     15.23%     19.33% |      169528     15.13%     34.46% |      170800     15.25%     49.70% |      169877     15.16%     64.87% |           0      0.00%     64.87% |      393603     35.13%    100.00%
system.ruby.L1Cache_Controller.IS.Data_Exclusive::total      1120324                      
system.ruby.L1Cache_Controller.IS.DataS_fromL1 |           0      0.00%      0.00% |           0      0.00%      0.00% |         543     23.91%     23.91% |         582     25.63%     49.54% |         561     24.70%     74.24% |         585     25.76%    100.00% |           0      0.00%    100.00% |           0      0.00%    100.00%
system.ruby.L1Cache_Controller.IS.DataS_fromL1::total         2271                      
system.ruby.L1Cache_Controller.IS.Data_all_Acks |        2544     38.57%     38.57% |           0      0.00%     38.57% |         974     14.77%     53.34% |        1017     15.42%     68.76% |        1070     16.22%     84.99% |         990     15.01%    100.00% |           0      0.00%    100.00% |           0      0.00%    100.00%
system.ruby.L1Cache_Controller.IS.Data_all_Acks::total         6595                      
system.ruby.L1Cache_Controller.IM.L1_Replacement |           0      0.00%      0.00% |           0      0.00%      0.00% |      763391      8.72%      8.72% |      761705      8.70%     17.42% |      749582      8.56%     25.98% |      751103      8.58%     34.56% |           0      0.00%     34.56% |     5729702     65.44%    100.00%
system.ruby.L1Cache_Controller.IM.L1_Replacement::total      8755483                      
system.ruby.L1Cache_Controller.IM.Data   |           0      0.00%      0.00% |           0      0.00%      0.00% |           1      4.17%      4.17% |           9     37.50%     41.67% |           0      0.00%     41.67% |          14     58.33%    100.00% |           0      0.00%    100.00% |           0      0.00%    100.00%
system.ruby.L1Cache_Controller.IM.Data::total           24                      
system.ruby.L1Cache_Controller.IM.Data_all_Acks |      268703     25.66%     25.66% |           0      0.00%     25.66% |       96456      9.21%     34.87% |       95800      9.15%     44.01% |       96628      9.23%     53.24% |       96116      9.18%     62.42% |           0      0.00%     62.42% |      393603     37.58%    100.00%
system.ruby.L1Cache_Controller.IM.Data_all_Acks::total      1047306                      
system.ruby.L1Cache_Controller.SM.Ack    |           0      0.00%      0.00% |           0      0.00%      0.00% |           0      0.00%      0.00% |           0      0.00%      0.00% |           0      0.00%      0.00% |           2    100.00%    100.00% |           0      0.00%    100.00% |           0      0.00%    100.00%
system.ruby.L1Cache_Controller.SM.Ack::total            2                      
system.ruby.L1Cache_Controller.SM.Ack_all |           0      0.00%      0.00% |           0      0.00%      0.00% |           1      4.17%      4.17% |           9     37.50%     41.67% |           0      0.00%     41.67% |          14     58.33%    100.00% |           0      0.00%    100.00% |           0      0.00%    100.00%
system.ruby.L1Cache_Controller.SM.Ack_all::total           24                      
system.ruby.L1Cache_Controller.IS_I.Data_all_Acks |          34     50.00%     50.00% |           0      0.00%     50.00% |           8     11.76%     61.76% |           9     13.24%     75.00% |           9     13.24%     88.24% |           8     11.76%    100.00% |           0      0.00%    100.00% |           0      0.00%    100.00%
system.ruby.L1Cache_Controller.IS_I.Data_all_Acks::total           68                      
system.ruby.L1Cache_Controller.M_I.Load  |           0      0.00%      0.00% |           0      0.00%      0.00% |           0      0.00%      0.00% |           1     25.00%     25.00% |           1     25.00%     50.00% |           2     50.00%    100.00% |           0      0.00%    100.00% |           0      0.00%    100.00%
system.ruby.L1Cache_Controller.M_I.Load::total            4                      
system.ruby.L1Cache_Controller.M_I.Ifetch |           1    100.00%    100.00% |           0      0.00%    100.00% |           0      0.00%    100.00% |           0      0.00%    100.00% |           0      0.00%    100.00% |           0      0.00%    100.00% |           0      0.00%    100.00% |           0      0.00%    100.00%
system.ruby.L1Cache_Controller.M_I.Ifetch::total            1                      
system.ruby.L1Cache_Controller.M_I.Inv   |           0      0.00%      0.00% |           0      0.00%      0.00% |       11372     24.67%     24.67% |       11564     25.09%     49.76% |       11767     25.53%     75.30% |       11386     24.70%    100.00% |           0      0.00%    100.00% |           0      0.00%    100.00%
system.ruby.L1Cache_Controller.M_I.Inv::total        46089                      
system.ruby.L1Cache_Controller.M_I.Fwd_GETS |           0      0.00%      0.00% |           0      0.00%      0.00% |           3     21.43%     21.43% |           3     21.43%     42.86% |           7     50.00%     92.86% |           1      7.14%    100.00% |           0      0.00%    100.00% |           0      0.00%    100.00%
system.ruby.L1Cache_Controller.M_I.Fwd_GETS::total           14                      
system.ruby.L1Cache_Controller.M_I.WB_Ack |      309470     17.95%     17.95% |           0      0.00%     17.95% |      157701      9.14%     27.09% |      156688      9.09%     36.18% |      157179      9.11%     45.29% |      156227      9.06%     54.35% |           0      0.00%     54.35% |      787189     45.65%    100.00%
system.ruby.L1Cache_Controller.M_I.WB_Ack::total      1724454                      
system.ruby.L1Cache_Controller.SINK_WB_ACK.WB_Ack |           0      0.00%      0.00% |           0      0.00%      0.00% |       11375     24.67%     24.67% |       11567     25.09%     49.76% |       11774     25.54%     75.30% |       11387     24.70%    100.00% |           0      0.00%    100.00% |           0      0.00%    100.00%
system.ruby.L1Cache_Controller.SINK_WB_ACK.WB_Ack::total        46103                      
system.ruby.L2Cache_Controller.L1_GET_INSTR         2832      0.00%      0.00%
system.ruby.L2Cache_Controller.L1_GETS        1126779      0.00%      0.00%
system.ruby.L2Cache_Controller.L1_GETX        1047432      0.00%      0.00%
system.ruby.L2Cache_Controller.L1_PUTX        1724479      0.00%      0.00%
system.ruby.L2Cache_Controller.L1_PUTX_old        71748      0.00%      0.00%
system.ruby.L2Cache_Controller.L2_Replacement       901610      0.00%      0.00%
system.ruby.L2Cache_Controller.L2_Replacement_clean      1357009      0.00%      0.00%
system.ruby.L2Cache_Controller.Mem_Data       2159597      0.00%      0.00%
system.ruby.L2Cache_Controller.Mem_Ack        2157632      0.00%      0.00%
system.ruby.L2Cache_Controller.WB_Data         144418      0.00%      0.00%
system.ruby.L2Cache_Controller.WB_Data_clean        25519      0.00%      0.00%
system.ruby.L2Cache_Controller.Ack               4328      0.00%      0.00%
system.ruby.L2Cache_Controller.Ack_all         279759      0.00%      0.00%
system.ruby.L2Cache_Controller.Unblock           2271      0.00%      0.00%
system.ruby.L2Cache_Controller.Exclusive_Unblock      2167654      0.00%      0.00%
system.ruby.L2Cache_Controller.NP.L1_GET_INSTR         2585      0.00%      0.00%
system.ruby.L2Cache_Controller.NP.L1_GETS      1111474      0.00%      0.00%
system.ruby.L2Cache_Controller.NP.L1_GETX      1045538      0.00%      0.00%
system.ruby.L2Cache_Controller.NP.L1_PUTX_old        33812      0.00%      0.00%
system.ruby.L2Cache_Controller.SS.L1_GET_INSTR          118      0.00%      0.00%
system.ruby.L2Cache_Controller.SS.L1_GETS           23      0.00%      0.00%
system.ruby.L2Cache_Controller.SS.L1_GETX           24      0.00%      0.00%
system.ruby.L2Cache_Controller.SS.L1_PUTX           14      0.00%      0.00%
system.ruby.L2Cache_Controller.SS.L2_Replacement           94      0.00%      0.00%
system.ruby.L2Cache_Controller.SS.L2_Replacement_clean         6626      0.00%      0.00%
system.ruby.L2Cache_Controller.M.L1_GET_INSTR            1      0.00%      0.00%
system.ruby.L2Cache_Controller.M.L1_GETS        10809      0.00%      0.00%
system.ruby.L2Cache_Controller.M.L1_GETX         1762      0.00%      0.00%
system.ruby.L2Cache_Controller.M.L2_Replacement       901480      0.00%      0.00%
system.ruby.L2Cache_Controller.M.L2_Replacement_clean       808727      0.00%      0.00%
system.ruby.L2Cache_Controller.MT.L1_GETS         2271      0.00%      0.00%
system.ruby.L2Cache_Controller.MT.L1_GETX            6      0.00%      0.00%
system.ruby.L2Cache_Controller.MT.L1_PUTX      1724454      0.00%      0.00%
system.ruby.L2Cache_Controller.MT.L2_Replacement           36      0.00%      0.00%
system.ruby.L2Cache_Controller.MT.L2_Replacement_clean       440669      0.00%      0.00%
system.ruby.L2Cache_Controller.M_I.L1_GET_INSTR          109      0.00%      0.00%
system.ruby.L2Cache_Controller.M_I.L1_GETS          180      0.00%      0.00%
system.ruby.L2Cache_Controller.M_I.L1_GETX          102      0.00%      0.00%
system.ruby.L2Cache_Controller.M_I.L1_PUTX_old        12274      0.00%      0.00%
system.ruby.L2Cache_Controller.M_I.Mem_Ack      2157632      0.00%      0.00%
system.ruby.L2Cache_Controller.MT_I.WB_Data           20      0.00%      0.00%
system.ruby.L2Cache_Controller.MT_I.Ack_all           16      0.00%      0.00%
system.ruby.L2Cache_Controller.MCT_I.L1_GETS           40      0.00%      0.00%
system.ruby.L2Cache_Controller.MCT_I.L1_PUTX_old        25659      0.00%      0.00%
system.ruby.L2Cache_Controller.MCT_I.WB_Data       144282      0.00%      0.00%
system.ruby.L2Cache_Controller.MCT_I.WB_Data_clean        23364      0.00%      0.00%
system.ruby.L2Cache_Controller.MCT_I.Ack_all       273023      0.00%      0.00%
system.ruby.L2Cache_Controller.I_I.L1_GET_INSTR            1      0.00%      0.00%
system.ruby.L2Cache_Controller.I_I.Ack           4218      0.00%      0.00%
system.ruby.L2Cache_Controller.I_I.Ack_all         6626      0.00%      0.00%
system.ruby.L2Cache_Controller.S_I.Ack            110      0.00%      0.00%
system.ruby.L2Cache_Controller.S_I.Ack_all           94      0.00%      0.00%
system.ruby.L2Cache_Controller.ISS.L1_GETS         1959      0.00%      0.00%
system.ruby.L2Cache_Controller.ISS.L1_PUTX_old            3      0.00%      0.00%
system.ruby.L2Cache_Controller.ISS.L2_Replacement_clean        76349      0.00%      0.00%
system.ruby.L2Cache_Controller.ISS.Mem_Data      1109515      0.00%      0.00%
system.ruby.L2Cache_Controller.IS.L1_GET_INSTR           18      0.00%      0.00%
system.ruby.L2Cache_Controller.IS.L2_Replacement_clean          644      0.00%      0.00%
system.ruby.L2Cache_Controller.IS.Mem_Data         4544      0.00%      0.00%
system.ruby.L2Cache_Controller.IM.L2_Replacement_clean        21744      0.00%      0.00%
system.ruby.L2Cache_Controller.IM.Mem_Data      1045538      0.00%      0.00%
system.ruby.L2Cache_Controller.SS_MB.Exclusive_Unblock           24      0.00%      0.00%
system.ruby.L2Cache_Controller.MT_MB.L1_GETS           23      0.00%      0.00%
system.ruby.L2Cache_Controller.MT_MB.L2_Replacement_clean         2250      0.00%      0.00%
system.ruby.L2Cache_Controller.MT_MB.Exclusive_Unblock      2167630      0.00%      0.00%
system.ruby.L2Cache_Controller.MT_IIB.L1_PUTX           11      0.00%      0.00%
system.ruby.L2Cache_Controller.MT_IIB.WB_Data           12      0.00%      0.00%
system.ruby.L2Cache_Controller.MT_IIB.WB_Data_clean          134      0.00%      0.00%
system.ruby.L2Cache_Controller.MT_IIB.Unblock         2125      0.00%      0.00%
system.ruby.L2Cache_Controller.MT_IB.WB_Data          104      0.00%      0.00%
system.ruby.L2Cache_Controller.MT_IB.WB_Data_clean         2021      0.00%      0.00%
system.ruby.L2Cache_Controller.MT_SB.Unblock          146      0.00%      0.00%

---------- End Simulation Statistics   ----------
