
---------- Begin Simulation Statistics ----------
sim_seconds                                  0.147168                       # Number of seconds simulated
sim_ticks                                147168244000                       # Number of ticks simulated
final_tick                               147175447500                       # Number of ticks from beginning of simulation (restored from checkpoints and never reset)
sim_freq                                 1000000000000                       # Frequency of simulated ticks
host_inst_rate                                  22302                       # Simulator instruction rate (inst/s)
host_op_rate                                    37241                       # Simulator op (including micro ops) rate (op/s)
host_tick_rate                               63886710                       # Simulator tick rate (ticks/s)
host_mem_usage                                1680600                       # Number of bytes of host memory used
host_seconds                                  2303.58                       # Real time elapsed on the host
sim_insts                                    51374534                       # Number of instructions simulated
sim_ops                                      85788684                       # Number of ops (including micro ops) simulated
system.voltage_domain.voltage                       1                       # Voltage in Volts
system.clk_domain.clock                          1000                       # Clock period in ticks
system.mem_ctrls.bytes_read::ruby.dir_cntrl0    276335744                       # Number of bytes read from this memory
system.mem_ctrls.bytes_read::total          276335744                       # Number of bytes read from this memory
system.mem_ctrls.bytes_written::ruby.dir_cntrl0    133703168                       # Number of bytes written to this memory
system.mem_ctrls.bytes_written::total       133703168                       # Number of bytes written to this memory
system.mem_ctrls.num_reads::ruby.dir_cntrl0      2158873                       # Number of read requests responded to by this memory
system.mem_ctrls.num_reads::total             2158873                       # Number of read requests responded to by this memory
system.mem_ctrls.num_writes::ruby.dir_cntrl0      1044556                       # Number of write requests responded to by this memory
system.mem_ctrls.num_writes::total            1044556                       # Number of write requests responded to by this memory
system.mem_ctrls.bw_read::ruby.dir_cntrl0   1877685950                       # Total read bandwidth from this memory (bytes/s)
system.mem_ctrls.bw_read::total            1877685950                       # Total read bandwidth from this memory (bytes/s)
system.mem_ctrls.bw_write::ruby.dir_cntrl0    908505560                       # Write bandwidth from this memory (bytes/s)
system.mem_ctrls.bw_write::total            908505560                       # Write bandwidth from this memory (bytes/s)
system.mem_ctrls.bw_total::ruby.dir_cntrl0   2786191510                       # Total bandwidth to/from this memory (bytes/s)
system.mem_ctrls.bw_total::total           2786191510                       # Total bandwidth to/from this memory (bytes/s)
system.mem_ctrls.readReqs                     2158873                       # Number of read requests accepted
system.mem_ctrls.writeReqs                    1044556                       # Number of write requests accepted
system.mem_ctrls.readBursts                   4317746                       # Number of DRAM read bursts, including those serviced by the write queue
system.mem_ctrls.writeBursts                  2089112                       # Number of DRAM write bursts, including those merged in the write queue
system.mem_ctrls.bytesReadDRAM              276211072                       # Total number of bytes read from DRAM
system.mem_ctrls.bytesReadWrQ                  124672                       # Total number of bytes read from write queue
system.mem_ctrls.bytesWritten               133699584                       # Total number of bytes written to DRAM
system.mem_ctrls.bytesReadSys               276335744                       # Total read bytes from the system interface side
system.mem_ctrls.bytesWrittenSys            133703168                       # Total written bytes from the system interface side
system.mem_ctrls.servicedByWrQ                   1948                       # Number of DRAM read bursts serviced by the write queue
system.mem_ctrls.mergedWrBursts                    37                       # Number of DRAM write bursts merged with an existing one
system.mem_ctrls.neitherReadNorWriteReqs            0                       # Number of requests that are neither read nor write
system.mem_ctrls.perBankRdBursts::0            267330                       # Per bank write bursts
system.mem_ctrls.perBankRdBursts::1            267173                       # Per bank write bursts
system.mem_ctrls.perBankRdBursts::2            270890                       # Per bank write bursts
system.mem_ctrls.perBankRdBursts::3            270192                       # Per bank write bursts
system.mem_ctrls.perBankRdBursts::4            266540                       # Per bank write bursts
system.mem_ctrls.perBankRdBursts::5            266527                       # Per bank write bursts
system.mem_ctrls.perBankRdBursts::6            264558                       # Per bank write bursts
system.mem_ctrls.perBankRdBursts::7            253999                       # Per bank write bursts
system.mem_ctrls.perBankRdBursts::8            264231                       # Per bank write bursts
system.mem_ctrls.perBankRdBursts::9            258369                       # Per bank write bursts
system.mem_ctrls.perBankRdBursts::10           295318                       # Per bank write bursts
system.mem_ctrls.perBankRdBursts::11           304138                       # Per bank write bursts
system.mem_ctrls.perBankRdBursts::12           266661                       # Per bank write bursts
system.mem_ctrls.perBankRdBursts::13           266550                       # Per bank write bursts
system.mem_ctrls.perBankRdBursts::14           266490                       # Per bank write bursts
system.mem_ctrls.perBankRdBursts::15           266832                       # Per bank write bursts
system.mem_ctrls.perBankWrBursts::0            131470                       # Per bank write bursts
system.mem_ctrls.perBankWrBursts::1            131682                       # Per bank write bursts
system.mem_ctrls.perBankWrBursts::2            131662                       # Per bank write bursts
system.mem_ctrls.perBankWrBursts::3            131724                       # Per bank write bursts
system.mem_ctrls.perBankWrBursts::4            131526                       # Per bank write bursts
system.mem_ctrls.perBankWrBursts::5            131590                       # Per bank write bursts
system.mem_ctrls.perBankWrBursts::6            131586                       # Per bank write bursts
system.mem_ctrls.perBankWrBursts::7            131522                       # Per bank write bursts
system.mem_ctrls.perBankWrBursts::8            131580                       # Per bank write bursts
system.mem_ctrls.perBankWrBursts::9            123456                       # Per bank write bursts
system.mem_ctrls.perBankWrBursts::10           122889                       # Per bank write bursts
system.mem_ctrls.perBankWrBursts::11           131990                       # Per bank write bursts
system.mem_ctrls.perBankWrBursts::12           131658                       # Per bank write bursts
system.mem_ctrls.perBankWrBursts::13           131562                       # Per bank write bursts
system.mem_ctrls.perBankWrBursts::14           131542                       # Per bank write bursts
system.mem_ctrls.perBankWrBursts::15           131617                       # Per bank write bursts
system.mem_ctrls.numRdRetry                    342616                       # Number of times read queue was full causing retry
system.mem_ctrls.numWrRetry                      5331                       # Number of times write queue was full causing retry
system.mem_ctrls.totGap                  147168424500                       # Total gap between requests
system.mem_ctrls.readPktSize::0                     0                       # Read request sizes (log2)
system.mem_ctrls.readPktSize::1                     0                       # Read request sizes (log2)
system.mem_ctrls.readPktSize::2                     0                       # Read request sizes (log2)
system.mem_ctrls.readPktSize::3                     0                       # Read request sizes (log2)
system.mem_ctrls.readPktSize::4                     0                       # Read request sizes (log2)
system.mem_ctrls.readPktSize::5                     0                       # Read request sizes (log2)
system.mem_ctrls.readPktSize::6               4317746                       # Read request sizes (log2)
system.mem_ctrls.writePktSize::0                    0                       # Write request sizes (log2)
system.mem_ctrls.writePktSize::1                    0                       # Write request sizes (log2)
system.mem_ctrls.writePktSize::2                    0                       # Write request sizes (log2)
system.mem_ctrls.writePktSize::3                    0                       # Write request sizes (log2)
system.mem_ctrls.writePktSize::4                    0                       # Write request sizes (log2)
system.mem_ctrls.writePktSize::5                    0                       # Write request sizes (log2)
system.mem_ctrls.writePktSize::6              2089112                       # Write request sizes (log2)
system.mem_ctrls.rdQLenPdf::0                  345225                       # What read queue length does an incoming req see
system.mem_ctrls.rdQLenPdf::1                  359202                       # What read queue length does an incoming req see
system.mem_ctrls.rdQLenPdf::2                  127806                       # What read queue length does an incoming req see
system.mem_ctrls.rdQLenPdf::3                  159672                       # What read queue length does an incoming req see
system.mem_ctrls.rdQLenPdf::4                  243404                       # What read queue length does an incoming req see
system.mem_ctrls.rdQLenPdf::5                  275511                       # What read queue length does an incoming req see
system.mem_ctrls.rdQLenPdf::6                  284933                       # What read queue length does an incoming req see
system.mem_ctrls.rdQLenPdf::7                  291855                       # What read queue length does an incoming req see
system.mem_ctrls.rdQLenPdf::8                  273952                       # What read queue length does an incoming req see
system.mem_ctrls.rdQLenPdf::9                  241785                       # What read queue length does an incoming req see
system.mem_ctrls.rdQLenPdf::10                 189389                       # What read queue length does an incoming req see
system.mem_ctrls.rdQLenPdf::11                 169581                       # What read queue length does an incoming req see
system.mem_ctrls.rdQLenPdf::12                 138365                       # What read queue length does an incoming req see
system.mem_ctrls.rdQLenPdf::13                 126214                       # What read queue length does an incoming req see
system.mem_ctrls.rdQLenPdf::14                  93205                       # What read queue length does an incoming req see
system.mem_ctrls.rdQLenPdf::15                  95023                       # What read queue length does an incoming req see
system.mem_ctrls.rdQLenPdf::16                  57221                       # What read queue length does an incoming req see
system.mem_ctrls.rdQLenPdf::17                  54821                       # What read queue length does an incoming req see
system.mem_ctrls.rdQLenPdf::18                  49335                       # What read queue length does an incoming req see
system.mem_ctrls.rdQLenPdf::19                  49902                       # What read queue length does an incoming req see
system.mem_ctrls.rdQLenPdf::20                  45787                       # What read queue length does an incoming req see
system.mem_ctrls.rdQLenPdf::21                  42347                       # What read queue length does an incoming req see
system.mem_ctrls.rdQLenPdf::22                  38086                       # What read queue length does an incoming req see
system.mem_ctrls.rdQLenPdf::23                  37080                       # What read queue length does an incoming req see
system.mem_ctrls.rdQLenPdf::24                  33458                       # What read queue length does an incoming req see
system.mem_ctrls.rdQLenPdf::25                  28368                       # What read queue length does an incoming req see
system.mem_ctrls.rdQLenPdf::26                  24532                       # What read queue length does an incoming req see
system.mem_ctrls.rdQLenPdf::27                  22968                       # What read queue length does an incoming req see
system.mem_ctrls.rdQLenPdf::28                  20675                       # What read queue length does an incoming req see
system.mem_ctrls.rdQLenPdf::29                  19453                       # What read queue length does an incoming req see
system.mem_ctrls.rdQLenPdf::30                 192542                       # What read queue length does an incoming req see
system.mem_ctrls.rdQLenPdf::31                 184101                       # What read queue length does an incoming req see
system.mem_ctrls.wrQLenPdf::0                       1                       # What write queue length does an incoming req see
system.mem_ctrls.wrQLenPdf::1                       1                       # What write queue length does an incoming req see
system.mem_ctrls.wrQLenPdf::2                       1                       # What write queue length does an incoming req see
system.mem_ctrls.wrQLenPdf::3                       1                       # What write queue length does an incoming req see
system.mem_ctrls.wrQLenPdf::4                       1                       # What write queue length does an incoming req see
system.mem_ctrls.wrQLenPdf::5                       1                       # What write queue length does an incoming req see
system.mem_ctrls.wrQLenPdf::6                       1                       # What write queue length does an incoming req see
system.mem_ctrls.wrQLenPdf::7                       1                       # What write queue length does an incoming req see
system.mem_ctrls.wrQLenPdf::8                       1                       # What write queue length does an incoming req see
system.mem_ctrls.wrQLenPdf::9                       1                       # What write queue length does an incoming req see
system.mem_ctrls.wrQLenPdf::10                      1                       # What write queue length does an incoming req see
system.mem_ctrls.wrQLenPdf::11                      1                       # What write queue length does an incoming req see
system.mem_ctrls.wrQLenPdf::12                      1                       # What write queue length does an incoming req see
system.mem_ctrls.wrQLenPdf::13                      1                       # What write queue length does an incoming req see
system.mem_ctrls.wrQLenPdf::14                      1                       # What write queue length does an incoming req see
system.mem_ctrls.wrQLenPdf::15                   1090                       # What write queue length does an incoming req see
system.mem_ctrls.wrQLenPdf::16                   1322                       # What write queue length does an incoming req see
system.mem_ctrls.wrQLenPdf::17                  34534                       # What write queue length does an incoming req see
system.mem_ctrls.wrQLenPdf::18                  35487                       # What write queue length does an incoming req see
system.mem_ctrls.wrQLenPdf::19                  38270                       # What write queue length does an incoming req see
system.mem_ctrls.wrQLenPdf::20                  44122                       # What write queue length does an incoming req see
system.mem_ctrls.wrQLenPdf::21                  53050                       # What write queue length does an incoming req see
system.mem_ctrls.wrQLenPdf::22                  64341                       # What write queue length does an incoming req see
system.mem_ctrls.wrQLenPdf::23                  84284                       # What write queue length does an incoming req see
system.mem_ctrls.wrQLenPdf::24                  93825                       # What write queue length does an incoming req see
system.mem_ctrls.wrQLenPdf::25                 100452                       # What write queue length does an incoming req see
system.mem_ctrls.wrQLenPdf::26                 111325                       # What write queue length does an incoming req see
system.mem_ctrls.wrQLenPdf::27                 115217                       # What write queue length does an incoming req see
system.mem_ctrls.wrQLenPdf::28                 125262                       # What write queue length does an incoming req see
system.mem_ctrls.wrQLenPdf::29                 128437                       # What write queue length does an incoming req see
system.mem_ctrls.wrQLenPdf::30                 128826                       # What write queue length does an incoming req see
system.mem_ctrls.wrQLenPdf::31                 130067                       # What write queue length does an incoming req see
system.mem_ctrls.wrQLenPdf::32                 131655                       # What write queue length does an incoming req see
system.mem_ctrls.wrQLenPdf::33                  72220                       # What write queue length does an incoming req see
system.mem_ctrls.wrQLenPdf::34                  31122                       # What write queue length does an incoming req see
system.mem_ctrls.wrQLenPdf::35                  17926                       # What write queue length does an incoming req see
system.mem_ctrls.wrQLenPdf::36                  13200                       # What write queue length does an incoming req see
system.mem_ctrls.wrQLenPdf::37                  10930                       # What write queue length does an incoming req see
system.mem_ctrls.wrQLenPdf::38                   9020                       # What write queue length does an incoming req see
system.mem_ctrls.wrQLenPdf::39                   9380                       # What write queue length does an incoming req see
system.mem_ctrls.wrQLenPdf::40                   8800                       # What write queue length does an incoming req see
system.mem_ctrls.wrQLenPdf::41                  10011                       # What write queue length does an incoming req see
system.mem_ctrls.wrQLenPdf::42                  10272                       # What write queue length does an incoming req see
system.mem_ctrls.wrQLenPdf::43                  13177                       # What write queue length does an incoming req see
system.mem_ctrls.wrQLenPdf::44                  14102                       # What write queue length does an incoming req see
system.mem_ctrls.wrQLenPdf::45                  18607                       # What write queue length does an incoming req see
system.mem_ctrls.wrQLenPdf::46                  19832                       # What write queue length does an incoming req see
system.mem_ctrls.wrQLenPdf::47                  24643                       # What write queue length does an incoming req see
system.mem_ctrls.wrQLenPdf::48                  26187                       # What write queue length does an incoming req see
system.mem_ctrls.wrQLenPdf::49                  30928                       # What write queue length does an incoming req see
system.mem_ctrls.wrQLenPdf::50                  33041                       # What write queue length does an incoming req see
system.mem_ctrls.wrQLenPdf::51                  37542                       # What write queue length does an incoming req see
system.mem_ctrls.wrQLenPdf::52                  38841                       # What write queue length does an incoming req see
system.mem_ctrls.wrQLenPdf::53                  42564                       # What write queue length does an incoming req see
system.mem_ctrls.wrQLenPdf::54                  51902                       # What write queue length does an incoming req see
system.mem_ctrls.wrQLenPdf::55                  39370                       # What write queue length does an incoming req see
system.mem_ctrls.wrQLenPdf::56                  28682                       # What write queue length does an incoming req see
system.mem_ctrls.wrQLenPdf::57                  17206                       # What write queue length does an incoming req see
system.mem_ctrls.wrQLenPdf::58                  12336                       # What write queue length does an incoming req see
system.mem_ctrls.wrQLenPdf::59                   7506                       # What write queue length does an incoming req see
system.mem_ctrls.wrQLenPdf::60                   5411                       # What write queue length does an incoming req see
system.mem_ctrls.wrQLenPdf::61                   3382                       # What write queue length does an incoming req see
system.mem_ctrls.wrQLenPdf::62                   5616                       # What write queue length does an incoming req see
system.mem_ctrls.wrQLenPdf::63                   3738                       # What write queue length does an incoming req see
system.mem_ctrls.bytesPerActivate::samples      1502077                       # Bytes accessed per row activation
system.mem_ctrls.bytesPerActivate::mean    272.895901                       # Bytes accessed per row activation
system.mem_ctrls.bytesPerActivate::gmean   196.312995                       # Bytes accessed per row activation
system.mem_ctrls.bytesPerActivate::stdev   282.102628                       # Bytes accessed per row activation
system.mem_ctrls.bytesPerActivate::0-127        32816      2.18%      2.18% # Bytes accessed per row activation
system.mem_ctrls.bytesPerActivate::128-255       939430     62.54%     64.73% # Bytes accessed per row activation
system.mem_ctrls.bytesPerActivate::256-383       271978     18.11%     82.83% # Bytes accessed per row activation
system.mem_ctrls.bytesPerActivate::384-511        27575      1.84%     84.67% # Bytes accessed per row activation
system.mem_ctrls.bytesPerActivate::512-639        32842      2.19%     86.86% # Bytes accessed per row activation
system.mem_ctrls.bytesPerActivate::640-767        16502      1.10%     87.95% # Bytes accessed per row activation
system.mem_ctrls.bytesPerActivate::768-895        17185      1.14%     89.10% # Bytes accessed per row activation
system.mem_ctrls.bytesPerActivate::896-1023        17737      1.18%     90.28% # Bytes accessed per row activation
system.mem_ctrls.bytesPerActivate::1024-1151       146012      9.72%    100.00% # Bytes accessed per row activation
system.mem_ctrls.bytesPerActivate::total      1502077                       # Bytes accessed per row activation
system.mem_ctrls.rdPerTurnAround::samples       130339                       # Reads before turning the bus around for writes
system.mem_ctrls.rdPerTurnAround::mean      33.110320                       # Reads before turning the bus around for writes
system.mem_ctrls.rdPerTurnAround::gmean     23.391576                       # Reads before turning the bus around for writes
system.mem_ctrls.rdPerTurnAround::stdev    119.232935                       # Reads before turning the bus around for writes
system.mem_ctrls.rdPerTurnAround::0-1023       130014     99.75%     99.75% # Reads before turning the bus around for writes
system.mem_ctrls.rdPerTurnAround::1024-2047          262      0.20%     99.95% # Reads before turning the bus around for writes
system.mem_ctrls.rdPerTurnAround::2048-3071           59      0.05%    100.00% # Reads before turning the bus around for writes
system.mem_ctrls.rdPerTurnAround::3072-4095            1      0.00%    100.00% # Reads before turning the bus around for writes
system.mem_ctrls.rdPerTurnAround::7168-8191            2      0.00%    100.00% # Reads before turning the bus around for writes
system.mem_ctrls.rdPerTurnAround::23552-24575            1      0.00%    100.00% # Reads before turning the bus around for writes
system.mem_ctrls.rdPerTurnAround::total        130339                       # Reads before turning the bus around for writes
system.mem_ctrls.wrPerTurnAround::samples       130339                       # Writes before turning the bus around for reads
system.mem_ctrls.wrPerTurnAround::mean      16.027866                       # Writes before turning the bus around for reads
system.mem_ctrls.wrPerTurnAround::gmean     16.024620                       # Writes before turning the bus around for reads
system.mem_ctrls.wrPerTurnAround::stdev      0.379757                       # Writes before turning the bus around for reads
system.mem_ctrls.wrPerTurnAround::16           128975     98.95%     98.95% # Writes before turning the bus around for reads
system.mem_ctrls.wrPerTurnAround::17               27      0.02%     98.97% # Writes before turning the bus around for reads
system.mem_ctrls.wrPerTurnAround::18             1196      0.92%     99.89% # Writes before turning the bus around for reads
system.mem_ctrls.wrPerTurnAround::19               12      0.01%     99.90% # Writes before turning the bus around for reads
system.mem_ctrls.wrPerTurnAround::20               33      0.03%     99.93% # Writes before turning the bus around for reads
system.mem_ctrls.wrPerTurnAround::21                5      0.00%     99.93% # Writes before turning the bus around for reads
system.mem_ctrls.wrPerTurnAround::22               16      0.01%     99.94% # Writes before turning the bus around for reads
system.mem_ctrls.wrPerTurnAround::23                4      0.00%     99.95% # Writes before turning the bus around for reads
system.mem_ctrls.wrPerTurnAround::24               15      0.01%     99.96% # Writes before turning the bus around for reads
system.mem_ctrls.wrPerTurnAround::25                3      0.00%     99.96% # Writes before turning the bus around for reads
system.mem_ctrls.wrPerTurnAround::26               11      0.01%     99.97% # Writes before turning the bus around for reads
system.mem_ctrls.wrPerTurnAround::27                3      0.00%     99.97% # Writes before turning the bus around for reads
system.mem_ctrls.wrPerTurnAround::28               13      0.01%     99.98% # Writes before turning the bus around for reads
system.mem_ctrls.wrPerTurnAround::29                4      0.00%     99.98% # Writes before turning the bus around for reads
system.mem_ctrls.wrPerTurnAround::30                3      0.00%     99.99% # Writes before turning the bus around for reads
system.mem_ctrls.wrPerTurnAround::31                1      0.00%     99.99% # Writes before turning the bus around for reads
system.mem_ctrls.wrPerTurnAround::32                3      0.00%     99.99% # Writes before turning the bus around for reads
system.mem_ctrls.wrPerTurnAround::33                1      0.00%     99.99% # Writes before turning the bus around for reads
system.mem_ctrls.wrPerTurnAround::34                4      0.00%     99.99% # Writes before turning the bus around for reads
system.mem_ctrls.wrPerTurnAround::35                2      0.00%     99.99% # Writes before turning the bus around for reads
system.mem_ctrls.wrPerTurnAround::36                5      0.00%    100.00% # Writes before turning the bus around for reads
system.mem_ctrls.wrPerTurnAround::38                3      0.00%    100.00% # Writes before turning the bus around for reads
system.mem_ctrls.wrPerTurnAround::total        130339                       # Writes before turning the bus around for reads
system.mem_ctrls.totQLat                 390639875049                       # Total ticks spent queuing
system.mem_ctrls.totMemAccLat            471561087549                       # Total ticks spent from burst creation until serviced by the DRAM
system.mem_ctrls.totBusLat                21578990000                       # Total ticks spent in databus transfers
system.mem_ctrls.avgQLat                     90513.94                       # Average queueing delay per DRAM burst
system.mem_ctrls.avgBusLat                    5000.00                       # Average bus latency per DRAM burst
system.mem_ctrls.avgMemAccLat               109263.94                       # Average memory access latency per DRAM burst
system.mem_ctrls.avgRdBW                      1876.84                       # Average DRAM read bandwidth in MiByte/s
system.mem_ctrls.avgWrBW                       908.48                       # Average achieved write bandwidth in MiByte/s
system.mem_ctrls.avgRdBWSys                   1877.69                       # Average system read bandwidth in MiByte/s
system.mem_ctrls.avgWrBWSys                    908.51                       # Average system write bandwidth in MiByte/s
system.mem_ctrls.peakBW                      12800.00                       # Theoretical peak bandwidth in MiByte/s
system.mem_ctrls.busUtil                        21.76                       # Data bus utilization in percentage
system.mem_ctrls.busUtilRead                    14.66                       # Data bus utilization in percentage for reads
system.mem_ctrls.busUtilWrite                    7.10                       # Data bus utilization in percentage for writes
system.mem_ctrls.avgRdQLen                       5.06                       # Average read queue length when enqueuing
system.mem_ctrls.avgWrQLen                      28.48                       # Average write queue length when enqueuing
system.mem_ctrls.readRowHits                  3173437                       # Number of row buffer hits during reads
system.mem_ctrls.writeRowHits                 1729342                       # Number of row buffer hits during writes
system.mem_ctrls.readRowHitRate                 73.53                       # Row buffer hit rate for reads
system.mem_ctrls.writeRowHitRate                82.78                       # Row buffer hit rate for writes
system.mem_ctrls.avgGap                      45940.90                       # Average gap between requests
system.mem_ctrls.pageHitRate                    76.55                       # Row buffer hit rate, read and write combined
system.mem_ctrls_0.actEnergy               5578146000                       # Energy for activate commands per rank (pJ)
system.mem_ctrls_0.preEnergy               3043631250                       # Energy for precharge commands per rank (pJ)
system.mem_ctrls_0.readEnergy             16592479800                       # Energy for read commands per rank (pJ)
system.mem_ctrls_0.writeEnergy             6821897760                       # Energy for write commands per rank (pJ)
system.mem_ctrls_0.refreshEnergy           9612292560                       # Energy for refresh commands per rank (pJ)
system.mem_ctrls_0.actBackEnergy          70377219135                       # Energy for active background per rank (pJ)
system.mem_ctrls_0.preBackEnergy          26566500000                       # Energy for precharge background per rank (pJ)
system.mem_ctrls_0.totalEnergy           138592166505                       # Total energy per rank (pJ)
system.mem_ctrls_0.averagePower            941.726498                       # Core power per rank (mW)
system.mem_ctrls_0.memoryStateTime::IDLE  43506232785                       # Time in different power states
system.mem_ctrls_0.memoryStateTime::REF    4914260000                       # Time in different power states
system.mem_ctrls_0.memoryStateTime::PRE_PDN            0                       # Time in different power states
system.mem_ctrls_0.memoryStateTime::ACT   98749544215                       # Time in different power states
system.mem_ctrls_0.memoryStateTime::ACT_PDN            0                       # Time in different power states
system.mem_ctrls_1.actEnergy               5777578800                       # Energy for activate commands per rank (pJ)
system.mem_ctrls_1.preEnergy               3152448750                       # Energy for precharge commands per rank (pJ)
system.mem_ctrls_1.readEnergy             17071337400                       # Energy for read commands per rank (pJ)
system.mem_ctrls_1.writeEnergy             6715185120                       # Energy for write commands per rank (pJ)
system.mem_ctrls_1.refreshEnergy           9612292560                       # Energy for refresh commands per rank (pJ)
system.mem_ctrls_1.actBackEnergy          68713822620                       # Energy for active background per rank (pJ)
system.mem_ctrls_1.preBackEnergy          28025619750                       # Energy for precharge background per rank (pJ)
system.mem_ctrls_1.totalEnergy           139068285000                       # Total energy per rank (pJ)
system.mem_ctrls_1.averagePower            944.961698                       # Core power per rank (mW)
system.mem_ctrls_1.memoryStateTime::IDLE  45931362794                       # Time in different power states
system.mem_ctrls_1.memoryStateTime::REF    4914260000                       # Time in different power states
system.mem_ctrls_1.memoryStateTime::PRE_PDN            0                       # Time in different power states
system.mem_ctrls_1.memoryStateTime::ACT   96323600206                       # Time in different power states
system.mem_ctrls_1.memoryStateTime::ACT_PDN            0                       # Time in different power states
system.ruby_clk_domain.clock                      500                       # Clock period in ticks
system.ruby.phys_mem.bytes_read::gpu.ce      50380812                       # Number of bytes read from this memory
system.ruby.phys_mem.bytes_read::gpu.shader_cores0.data      9851968                       # Number of bytes read from this memory
system.ruby.phys_mem.bytes_read::gpu.shader_cores0.inst          576                       # Number of bytes read from this memory
system.ruby.phys_mem.bytes_read::gpu.shader_cores1.data      9712192                       # Number of bytes read from this memory
system.ruby.phys_mem.bytes_read::gpu.shader_cores1.inst          576                       # Number of bytes read from this memory
system.ruby.phys_mem.bytes_read::gpu.shader_cores2.data      9809408                       # Number of bytes read from this memory
system.ruby.phys_mem.bytes_read::gpu.shader_cores2.inst          576                       # Number of bytes read from this memory
system.ruby.phys_mem.bytes_read::gpu.shader_cores3.data      9685888                       # Number of bytes read from this memory
system.ruby.phys_mem.bytes_read::gpu.shader_cores3.inst          576                       # Number of bytes read from this memory
system.ruby.phys_mem.bytes_read::switch_cpus0.inst    531340432                       # Number of bytes read from this memory
system.ruby.phys_mem.bytes_read::switch_cpus0.data     56200086                       # Number of bytes read from this memory
system.ruby.phys_mem.bytes_read::total      676983090                       # Number of bytes read from this memory
system.ruby.phys_mem.bytes_inst_read::gpu.shader_cores0.inst          576                       # Number of instructions bytes read from this memory
system.ruby.phys_mem.bytes_inst_read::gpu.shader_cores1.inst          576                       # Number of instructions bytes read from this memory
system.ruby.phys_mem.bytes_inst_read::gpu.shader_cores2.inst          576                       # Number of instructions bytes read from this memory
system.ruby.phys_mem.bytes_inst_read::gpu.shader_cores3.inst          576                       # Number of instructions bytes read from this memory
system.ruby.phys_mem.bytes_inst_read::switch_cpus0.inst    531340432                       # Number of instructions bytes read from this memory
system.ruby.phys_mem.bytes_inst_read::total    531342736                       # Number of instructions bytes read from this memory
system.ruby.phys_mem.bytes_written::gpu.ce     50380812                       # Number of bytes written to this memory
system.ruby.phys_mem.bytes_written::gpu.shader_cores0.data      4226048                       # Number of bytes written to this memory
system.ruby.phys_mem.bytes_written::gpu.shader_cores1.data      4170752                       # Number of bytes written to this memory
system.ruby.phys_mem.bytes_written::gpu.shader_cores2.data      4215808                       # Number of bytes written to this memory
system.ruby.phys_mem.bytes_written::gpu.shader_cores3.data      4164608                       # Number of bytes written to this memory
system.ruby.phys_mem.bytes_written::switch_cpus0.data     37552369                       # Number of bytes written to this memory
system.ruby.phys_mem.bytes_written::total    104710397                       # Number of bytes written to this memory
system.ruby.phys_mem.num_reads::gpu.ce         393603                       # Number of read requests responded to by this memory
system.ruby.phys_mem.num_reads::gpu.shader_cores0.data       172949                       # Number of read requests responded to by this memory
system.ruby.phys_mem.num_reads::gpu.shader_cores0.inst           36                       # Number of read requests responded to by this memory
system.ruby.phys_mem.num_reads::gpu.shader_cores1.data       171003                       # Number of read requests responded to by this memory
system.ruby.phys_mem.num_reads::gpu.shader_cores1.inst           36                       # Number of read requests responded to by this memory
system.ruby.phys_mem.num_reads::gpu.shader_cores2.data       173075                       # Number of read requests responded to by this memory
system.ruby.phys_mem.num_reads::gpu.shader_cores2.inst           36                       # Number of read requests responded to by this memory
system.ruby.phys_mem.num_reads::gpu.shader_cores3.data       171101                       # Number of read requests responded to by this memory
system.ruby.phys_mem.num_reads::gpu.shader_cores3.inst           36                       # Number of read requests responded to by this memory
system.ruby.phys_mem.num_reads::switch_cpus0.inst     66417554                       # Number of read requests responded to by this memory
system.ruby.phys_mem.num_reads::switch_cpus0.data     13587023                       # Number of read requests responded to by this memory
system.ruby.phys_mem.num_reads::total        81086452                       # Number of read requests responded to by this memory
system.ruby.phys_mem.num_writes::gpu.ce        393603                       # Number of write requests responded to by this memory
system.ruby.phys_mem.num_writes::gpu.shader_cores0.data        96627                       # Number of write requests responded to by this memory
system.ruby.phys_mem.num_writes::gpu.shader_cores1.data        95657                       # Number of write requests responded to by this memory
system.ruby.phys_mem.num_writes::gpu.shader_cores2.data        96899                       # Number of write requests responded to by this memory
system.ruby.phys_mem.num_writes::gpu.shader_cores3.data        95841                       # Number of write requests responded to by this memory
system.ruby.phys_mem.num_writes::switch_cpus0.data      6946312                       # Number of write requests responded to by this memory
system.ruby.phys_mem.num_writes::total        7724939                       # Number of write requests responded to by this memory
system.ruby.phys_mem.bw_read::gpu.ce        342334804                       # Total read bandwidth from this memory (bytes/s)
system.ruby.phys_mem.bw_read::gpu.shader_cores0.data     66943572                       # Total read bandwidth from this memory (bytes/s)
system.ruby.phys_mem.bw_read::gpu.shader_cores0.inst         3914                       # Total read bandwidth from this memory (bytes/s)
system.ruby.phys_mem.bw_read::gpu.shader_cores1.data     65993802                       # Total read bandwidth from this memory (bytes/s)
system.ruby.phys_mem.bw_read::gpu.shader_cores1.inst         3914                       # Total read bandwidth from this memory (bytes/s)
system.ruby.phys_mem.bw_read::gpu.shader_cores2.data     66654380                       # Total read bandwidth from this memory (bytes/s)
system.ruby.phys_mem.bw_read::gpu.shader_cores2.inst         3914                       # Total read bandwidth from this memory (bytes/s)
system.ruby.phys_mem.bw_read::gpu.shader_cores3.data     65815068                       # Total read bandwidth from this memory (bytes/s)
system.ruby.phys_mem.bw_read::gpu.shader_cores3.inst         3914                       # Total read bandwidth from this memory (bytes/s)
system.ruby.phys_mem.bw_read::switch_cpus0.inst   3610428565                       # Total read bandwidth from this memory (bytes/s)
system.ruby.phys_mem.bw_read::switch_cpus0.data    381876446                       # Total read bandwidth from this memory (bytes/s)
system.ruby.phys_mem.bw_read::total        4600062293                       # Total read bandwidth from this memory (bytes/s)
system.ruby.phys_mem.bw_inst_read::gpu.shader_cores0.inst         3914                       # Instruction read bandwidth from this memory (bytes/s)
system.ruby.phys_mem.bw_inst_read::gpu.shader_cores1.inst         3914                       # Instruction read bandwidth from this memory (bytes/s)
system.ruby.phys_mem.bw_inst_read::gpu.shader_cores2.inst         3914                       # Instruction read bandwidth from this memory (bytes/s)
system.ruby.phys_mem.bw_inst_read::gpu.shader_cores3.inst         3914                       # Instruction read bandwidth from this memory (bytes/s)
system.ruby.phys_mem.bw_inst_read::switch_cpus0.inst   3610428565                       # Instruction read bandwidth from this memory (bytes/s)
system.ruby.phys_mem.bw_inst_read::total   3610444221                       # Instruction read bandwidth from this memory (bytes/s)
system.ruby.phys_mem.bw_write::gpu.ce       342334804                       # Write bandwidth from this memory (bytes/s)
system.ruby.phys_mem.bw_write::gpu.shader_cores0.data     28715760                       # Write bandwidth from this memory (bytes/s)
system.ruby.phys_mem.bw_write::gpu.shader_cores1.data     28340027                       # Write bandwidth from this memory (bytes/s)
system.ruby.phys_mem.bw_write::gpu.shader_cores2.data     28646180                       # Write bandwidth from this memory (bytes/s)
system.ruby.phys_mem.bw_write::gpu.shader_cores3.data     28298279                       # Write bandwidth from this memory (bytes/s)
system.ruby.phys_mem.bw_write::switch_cpus0.data    255166250                       # Write bandwidth from this memory (bytes/s)
system.ruby.phys_mem.bw_write::total        711501301                       # Write bandwidth from this memory (bytes/s)
system.ruby.phys_mem.bw_total::gpu.ce       684669608                       # Total bandwidth to/from this memory (bytes/s)
system.ruby.phys_mem.bw_total::gpu.shader_cores0.data     95659333                       # Total bandwidth to/from this memory (bytes/s)
system.ruby.phys_mem.bw_total::gpu.shader_cores0.inst         3914                       # Total bandwidth to/from this memory (bytes/s)
system.ruby.phys_mem.bw_total::gpu.shader_cores1.data     94333829                       # Total bandwidth to/from this memory (bytes/s)
system.ruby.phys_mem.bw_total::gpu.shader_cores1.inst         3914                       # Total bandwidth to/from this memory (bytes/s)
system.ruby.phys_mem.bw_total::gpu.shader_cores2.data     95300560                       # Total bandwidth to/from this memory (bytes/s)
system.ruby.phys_mem.bw_total::gpu.shader_cores2.inst         3914                       # Total bandwidth to/from this memory (bytes/s)
system.ruby.phys_mem.bw_total::gpu.shader_cores3.data     94113347                       # Total bandwidth to/from this memory (bytes/s)
system.ruby.phys_mem.bw_total::gpu.shader_cores3.inst         3914                       # Total bandwidth to/from this memory (bytes/s)
system.ruby.phys_mem.bw_total::switch_cpus0.inst   3610428565                       # Total bandwidth to/from this memory (bytes/s)
system.ruby.phys_mem.bw_total::switch_cpus0.data    637042697                       # Total bandwidth to/from this memory (bytes/s)
system.ruby.phys_mem.bw_total::total       5311563594                       # Total bandwidth to/from this memory (bytes/s)
system.cpu_voltage_domain.voltage                   1                       # Voltage in Volts
system.cpu_clk_domain.clock                       500                       # Clock period in ticks
system.cpu0.apic_clk_domain.clock                8000                       # Clock period in ticks
system.cpu0.workload.num_syscalls                  30                       # Number of system calls
system.cpu0.numCycles                               0                       # number of cpu cycles simulated
system.cpu0.numWorkItemsStarted                     0                       # number of work items this cpu started
system.cpu0.numWorkItemsCompleted                   0                       # number of work items this cpu completed
system.cpu0.committedInsts                          0                       # Number of instructions committed
system.cpu0.committedOps                            0                       # Number of ops (including micro ops) committed
system.cpu0.num_int_alu_accesses                    0                       # Number of integer alu accesses
system.cpu0.num_fp_alu_accesses                     0                       # Number of float alu accesses
system.cpu0.num_func_calls                          0                       # number of times a function call or return occured
system.cpu0.num_conditional_control_insts            0                       # number of instructions that are conditional controls
system.cpu0.num_int_insts                           0                       # number of integer instructions
system.cpu0.num_fp_insts                            0                       # number of float instructions
system.cpu0.num_int_register_reads                  0                       # number of times the integer registers were read
system.cpu0.num_int_register_writes                 0                       # number of times the integer registers were written
system.cpu0.num_fp_register_reads                   0                       # number of times the floating registers were read
system.cpu0.num_fp_register_writes                  0                       # number of times the floating registers were written
system.cpu0.num_mem_refs                            0                       # number of memory refs
system.cpu0.num_load_insts                          0                       # Number of load instructions
system.cpu0.num_store_insts                         0                       # Number of store instructions
system.cpu0.num_idle_cycles                         0                       # Number of idle cycles
system.cpu0.num_busy_cycles                         0                       # Number of busy cycles
system.cpu0.not_idle_fraction                       1                       # Percentage of non-idle cycles
system.cpu0.idle_fraction                           0                       # Percentage of idle cycles
system.cpu0.op_class::No_OpClass                    0                       # Class of executed instruction
system.cpu0.op_class::IntAlu                        0                       # Class of executed instruction
system.cpu0.op_class::IntMult                       0                       # Class of executed instruction
system.cpu0.op_class::IntDiv                        0                       # Class of executed instruction
system.cpu0.op_class::FloatAdd                      0                       # Class of executed instruction
system.cpu0.op_class::FloatCmp                      0                       # Class of executed instruction
system.cpu0.op_class::FloatCvt                      0                       # Class of executed instruction
system.cpu0.op_class::FloatMult                     0                       # Class of executed instruction
system.cpu0.op_class::FloatDiv                      0                       # Class of executed instruction
system.cpu0.op_class::FloatSqrt                     0                       # Class of executed instruction
system.cpu0.op_class::SimdAdd                       0                       # Class of executed instruction
system.cpu0.op_class::SimdAddAcc                    0                       # Class of executed instruction
system.cpu0.op_class::SimdAlu                       0                       # Class of executed instruction
system.cpu0.op_class::SimdCmp                       0                       # Class of executed instruction
system.cpu0.op_class::SimdCvt                       0                       # Class of executed instruction
system.cpu0.op_class::SimdMisc                      0                       # Class of executed instruction
system.cpu0.op_class::SimdMult                      0                       # Class of executed instruction
system.cpu0.op_class::SimdMultAcc                   0                       # Class of executed instruction
system.cpu0.op_class::SimdShift                     0                       # Class of executed instruction
system.cpu0.op_class::SimdShiftAcc                  0                       # Class of executed instruction
system.cpu0.op_class::SimdSqrt                      0                       # Class of executed instruction
system.cpu0.op_class::SimdFloatAdd                  0                       # Class of executed instruction
system.cpu0.op_class::SimdFloatAlu                  0                       # Class of executed instruction
system.cpu0.op_class::SimdFloatCmp                  0                       # Class of executed instruction
system.cpu0.op_class::SimdFloatCvt                  0                       # Class of executed instruction
system.cpu0.op_class::SimdFloatDiv                  0                       # Class of executed instruction
system.cpu0.op_class::SimdFloatMisc                 0                       # Class of executed instruction
system.cpu0.op_class::SimdFloatMult                 0                       # Class of executed instruction
system.cpu0.op_class::SimdFloatMultAcc              0                       # Class of executed instruction
system.cpu0.op_class::SimdFloatSqrt                 0                       # Class of executed instruction
system.cpu0.op_class::MemRead                       0                       # Class of executed instruction
system.cpu0.op_class::MemWrite                      0                       # Class of executed instruction
system.cpu0.op_class::IprAccess                     0                       # Class of executed instruction
system.cpu0.op_class::InstPrefetch                  0                       # Class of executed instruction
system.cpu0.op_class::total                         0                       # Class of executed instruction
system.cpu1.apic_clk_domain.clock                8000                       # Clock period in ticks
system.cpu1.numCycles                               0                       # number of cpu cycles simulated
system.cpu1.numWorkItemsStarted                     0                       # number of work items this cpu started
system.cpu1.numWorkItemsCompleted                   0                       # number of work items this cpu completed
system.cpu1.committedInsts                          0                       # Number of instructions committed
system.cpu1.committedOps                            0                       # Number of ops (including micro ops) committed
system.cpu1.num_int_alu_accesses                    0                       # Number of integer alu accesses
system.cpu1.num_fp_alu_accesses                     0                       # Number of float alu accesses
system.cpu1.num_func_calls                          0                       # number of times a function call or return occured
system.cpu1.num_conditional_control_insts            0                       # number of instructions that are conditional controls
system.cpu1.num_int_insts                           0                       # number of integer instructions
system.cpu1.num_fp_insts                            0                       # number of float instructions
system.cpu1.num_int_register_reads                  0                       # number of times the integer registers were read
system.cpu1.num_int_register_writes                 0                       # number of times the integer registers were written
system.cpu1.num_fp_register_reads                   0                       # number of times the floating registers were read
system.cpu1.num_fp_register_writes                  0                       # number of times the floating registers were written
system.cpu1.num_mem_refs                            0                       # number of memory refs
system.cpu1.num_load_insts                          0                       # Number of load instructions
system.cpu1.num_store_insts                         0                       # Number of store instructions
system.cpu1.num_idle_cycles                         0                       # Number of idle cycles
system.cpu1.num_busy_cycles                         0                       # Number of busy cycles
system.cpu1.not_idle_fraction                       0                       # Percentage of non-idle cycles
system.cpu1.idle_fraction                           1                       # Percentage of idle cycles
system.cpu1.op_class::No_OpClass                    0                       # Class of executed instruction
system.cpu1.op_class::IntAlu                        0                       # Class of executed instruction
system.cpu1.op_class::IntMult                       0                       # Class of executed instruction
system.cpu1.op_class::IntDiv                        0                       # Class of executed instruction
system.cpu1.op_class::FloatAdd                      0                       # Class of executed instruction
system.cpu1.op_class::FloatCmp                      0                       # Class of executed instruction
system.cpu1.op_class::FloatCvt                      0                       # Class of executed instruction
system.cpu1.op_class::FloatMult                     0                       # Class of executed instruction
system.cpu1.op_class::FloatDiv                      0                       # Class of executed instruction
system.cpu1.op_class::FloatSqrt                     0                       # Class of executed instruction
system.cpu1.op_class::SimdAdd                       0                       # Class of executed instruction
system.cpu1.op_class::SimdAddAcc                    0                       # Class of executed instruction
system.cpu1.op_class::SimdAlu                       0                       # Class of executed instruction
system.cpu1.op_class::SimdCmp                       0                       # Class of executed instruction
system.cpu1.op_class::SimdCvt                       0                       # Class of executed instruction
system.cpu1.op_class::SimdMisc                      0                       # Class of executed instruction
system.cpu1.op_class::SimdMult                      0                       # Class of executed instruction
system.cpu1.op_class::SimdMultAcc                   0                       # Class of executed instruction
system.cpu1.op_class::SimdShift                     0                       # Class of executed instruction
system.cpu1.op_class::SimdShiftAcc                  0                       # Class of executed instruction
system.cpu1.op_class::SimdSqrt                      0                       # Class of executed instruction
system.cpu1.op_class::SimdFloatAdd                  0                       # Class of executed instruction
system.cpu1.op_class::SimdFloatAlu                  0                       # Class of executed instruction
system.cpu1.op_class::SimdFloatCmp                  0                       # Class of executed instruction
system.cpu1.op_class::SimdFloatCvt                  0                       # Class of executed instruction
system.cpu1.op_class::SimdFloatDiv                  0                       # Class of executed instruction
system.cpu1.op_class::SimdFloatMisc                 0                       # Class of executed instruction
system.cpu1.op_class::SimdFloatMult                 0                       # Class of executed instruction
system.cpu1.op_class::SimdFloatMultAcc              0                       # Class of executed instruction
system.cpu1.op_class::SimdFloatSqrt                 0                       # Class of executed instruction
system.cpu1.op_class::MemRead                       0                       # Class of executed instruction
system.cpu1.op_class::MemWrite                      0                       # Class of executed instruction
system.cpu1.op_class::IprAccess                     0                       # Class of executed instruction
system.cpu1.op_class::InstPrefetch                  0                       # Class of executed instruction
system.cpu1.op_class::total                         0                       # Class of executed instruction
system.gpu.clk_domain.voltage_domain.voltage            1                       # Voltage in Volts
system.gpu.clk_domain.clock                      1429                       # Clock period in ticks
system.gpu.dram_wrapper.clk_domain.clock          541                       # Clock period in ticks
system.gpu.icnt_wrapper.clk_domain.clock         2858                       # Clock period in ticks
system.ruby.delayHist::bucket_size                128                       # delay histogram for all message
system.ruby.delayHist::max_bucket                1279                       # delay histogram for all message
system.ruby.delayHist::samples               15366516                       # delay histogram for all message
system.ruby.delayHist::mean                  4.848198                       # delay histogram for all message
system.ruby.delayHist::stdev                17.270600                       # delay histogram for all message
system.ruby.delayHist                    |    15306269     99.61%     99.61% |       48684      0.32%     99.92% |       10036      0.07%     99.99% |        1418      0.01%    100.00% |         108      0.00%    100.00% |           1      0.00%    100.00% |           0      0.00%    100.00% |           0      0.00%    100.00% |           0      0.00%    100.00% |           0      0.00%    100.00% # delay histogram for all message
system.ruby.delayHist::total                 15366516                       # delay histogram for all message
system.ruby.outstanding_req_hist::bucket_size           16                      
system.ruby.outstanding_req_hist::max_bucket          159                      
system.ruby.outstanding_req_hist::samples     88811391                      
system.ruby.outstanding_req_hist::mean       1.942772                      
system.ruby.outstanding_req_hist::gmean      1.076785                      
system.ruby.outstanding_req_hist::stdev      7.467973                      
system.ruby.outstanding_req_hist         |    87373107     98.38%     98.38% |      223419      0.25%     98.63% |      135539      0.15%     98.78% |      115461      0.13%     98.91% |      859794      0.97%     99.88% |       40248      0.05%     99.93% |       63823      0.07%    100.00% |           0      0.00%    100.00% |           0      0.00%    100.00% |           0      0.00%    100.00%
system.ruby.outstanding_req_hist::total      88811391                      
system.ruby.latency_hist::bucket_size            4096                      
system.ruby.latency_hist::max_bucket            40959                      
system.ruby.latency_hist::samples            88811391                      
system.ruby.latency_hist::mean              77.593590                      
system.ruby.latency_hist::gmean              1.188732                      
system.ruby.latency_hist::stdev            859.718058                      
system.ruby.latency_hist                 |    88206827     99.32%     99.32% |      385225      0.43%     99.75% |       85322      0.10%     99.85% |       66856      0.08%     99.92% |       38183      0.04%     99.97% |       18670      0.02%     99.99% |        8240      0.01%    100.00% |        1875      0.00%    100.00% |         181      0.00%    100.00% |          12      0.00%    100.00%
system.ruby.latency_hist::total              88811391                      
system.ruby.hit_latency_hist::bucket_size            2                      
system.ruby.hit_latency_hist::max_bucket           19                      
system.ruby.hit_latency_hist::samples        86637081                      
system.ruby.hit_latency_hist::mean           1.000014                      
system.ruby.hit_latency_hist::gmean          1.000005                      
system.ruby.hit_latency_hist::stdev          0.008227                      
system.ruby.hit_latency_hist             |    86636775    100.00%    100.00% |          94      0.00%    100.00% |         102      0.00%    100.00% |          76      0.00%    100.00% |          30      0.00%    100.00% |           4      0.00%    100.00% |           0      0.00%    100.00% |           0      0.00%    100.00% |           0      0.00%    100.00% |           0      0.00%    100.00%
system.ruby.hit_latency_hist::total          86637081                      
system.ruby.miss_latency_hist::bucket_size         4096                      
system.ruby.miss_latency_hist::max_bucket        40959                      
system.ruby.miss_latency_hist::samples        2174310                      
system.ruby.miss_latency_hist::mean       3129.524487                      
system.ruby.miss_latency_hist::gmean      1166.187945                      
system.ruby.miss_latency_hist::stdev      4543.314215                      
system.ruby.miss_latency_hist            |     1569746     72.20%     72.20% |      385225     17.72%     89.91% |       85322      3.92%     93.84% |       66856      3.07%     96.91% |       38183      1.76%     98.67% |       18670      0.86%     99.53% |        8240      0.38%     99.90% |        1875      0.09%     99.99% |         181      0.01%    100.00% |          12      0.00%    100.00%
system.ruby.miss_latency_hist::total          2174310                      
system.gpu.shader_mmu.numPagefaults                 0                       # Number of Pagefaults
system.gpu.shader_mmu.numPagewalks             174122                       # Number of Pagewalks
system.gpu.shader_mmu.totalRequests            174122                       # Total number of requests
system.gpu.shader_mmu.l2hits                        0                       # Hits in the shared L2
system.gpu.shader_mmu.prefetchHits                  0                       # Number of prefetch hits
system.gpu.shader_mmu.numPrefetches                 0                       # Number of prefetchs
system.gpu.shader_mmu.prefetchFaults                0                       # Number of faults caused by prefetches
system.gpu.shader_mmu.pagefaultLatency::samples            0                       # Latency to complete the pagefault
system.gpu.shader_mmu.pagefaultLatency::mean          nan                       # Latency to complete the pagefault
system.gpu.shader_mmu.pagefaultLatency::gmean          nan                       # Latency to complete the pagefault
system.gpu.shader_mmu.pagefaultLatency::stdev          nan                       # Latency to complete the pagefault
system.gpu.shader_mmu.pagefaultLatency::0            0                       # Latency to complete the pagefault
system.gpu.shader_mmu.pagefaultLatency::1            0                       # Latency to complete the pagefault
system.gpu.shader_mmu.pagefaultLatency::2            0                       # Latency to complete the pagefault
system.gpu.shader_mmu.pagefaultLatency::3            0                       # Latency to complete the pagefault
system.gpu.shader_mmu.pagefaultLatency::4            0                       # Latency to complete the pagefault
system.gpu.shader_mmu.pagefaultLatency::5            0                       # Latency to complete the pagefault
system.gpu.shader_mmu.pagefaultLatency::6            0                       # Latency to complete the pagefault
system.gpu.shader_mmu.pagefaultLatency::7            0                       # Latency to complete the pagefault
system.gpu.shader_mmu.pagefaultLatency::8            0                       # Latency to complete the pagefault
system.gpu.shader_mmu.pagefaultLatency::9            0                       # Latency to complete the pagefault
system.gpu.shader_mmu.pagefaultLatency::10            0                       # Latency to complete the pagefault
system.gpu.shader_mmu.pagefaultLatency::11            0                       # Latency to complete the pagefault
system.gpu.shader_mmu.pagefaultLatency::12            0                       # Latency to complete the pagefault
system.gpu.shader_mmu.pagefaultLatency::13            0                       # Latency to complete the pagefault
system.gpu.shader_mmu.pagefaultLatency::14            0                       # Latency to complete the pagefault
system.gpu.shader_mmu.pagefaultLatency::15            0                       # Latency to complete the pagefault
system.gpu.shader_mmu.pagefaultLatency::16            0                       # Latency to complete the pagefault
system.gpu.shader_mmu.pagefaultLatency::17            0                       # Latency to complete the pagefault
system.gpu.shader_mmu.pagefaultLatency::18            0                       # Latency to complete the pagefault
system.gpu.shader_mmu.pagefaultLatency::19            0                       # Latency to complete the pagefault
system.gpu.shader_mmu.pagefaultLatency::20            0                       # Latency to complete the pagefault
system.gpu.shader_mmu.pagefaultLatency::21            0                       # Latency to complete the pagefault
system.gpu.shader_mmu.pagefaultLatency::22            0                       # Latency to complete the pagefault
system.gpu.shader_mmu.pagefaultLatency::23            0                       # Latency to complete the pagefault
system.gpu.shader_mmu.pagefaultLatency::24            0                       # Latency to complete the pagefault
system.gpu.shader_mmu.pagefaultLatency::25            0                       # Latency to complete the pagefault
system.gpu.shader_mmu.pagefaultLatency::26            0                       # Latency to complete the pagefault
system.gpu.shader_mmu.pagefaultLatency::27            0                       # Latency to complete the pagefault
system.gpu.shader_mmu.pagefaultLatency::28            0                       # Latency to complete the pagefault
system.gpu.shader_mmu.pagefaultLatency::29            0                       # Latency to complete the pagefault
system.gpu.shader_mmu.pagefaultLatency::30            0                       # Latency to complete the pagefault
system.gpu.shader_mmu.pagefaultLatency::31            0                       # Latency to complete the pagefault
system.gpu.shader_mmu.pagefaultLatency::total            0                       # Latency to complete the pagefault
system.gpu.shader_mmu.concurrentWalks::samples       174122                       # Number of outstanding walks
system.gpu.shader_mmu.concurrentWalks::mean            0                       # Number of outstanding walks
system.gpu.shader_mmu.concurrentWalks::gmean            0                       # Number of outstanding walks
system.gpu.shader_mmu.concurrentWalks::stdev            0                       # Number of outstanding walks
system.gpu.shader_mmu.concurrentWalks::0       174122    100.00%    100.00% # Number of outstanding walks
system.gpu.shader_mmu.concurrentWalks::1            0      0.00%    100.00% # Number of outstanding walks
system.gpu.shader_mmu.concurrentWalks::2            0      0.00%    100.00% # Number of outstanding walks
system.gpu.shader_mmu.concurrentWalks::3            0      0.00%    100.00% # Number of outstanding walks
system.gpu.shader_mmu.concurrentWalks::4            0      0.00%    100.00% # Number of outstanding walks
system.gpu.shader_mmu.concurrentWalks::5            0      0.00%    100.00% # Number of outstanding walks
system.gpu.shader_mmu.concurrentWalks::6            0      0.00%    100.00% # Number of outstanding walks
system.gpu.shader_mmu.concurrentWalks::7            0      0.00%    100.00% # Number of outstanding walks
system.gpu.shader_mmu.concurrentWalks::8            0      0.00%    100.00% # Number of outstanding walks
system.gpu.shader_mmu.concurrentWalks::9            0      0.00%    100.00% # Number of outstanding walks
system.gpu.shader_mmu.concurrentWalks::10            0      0.00%    100.00% # Number of outstanding walks
system.gpu.shader_mmu.concurrentWalks::11            0      0.00%    100.00% # Number of outstanding walks
system.gpu.shader_mmu.concurrentWalks::12            0      0.00%    100.00% # Number of outstanding walks
system.gpu.shader_mmu.concurrentWalks::13            0      0.00%    100.00% # Number of outstanding walks
system.gpu.shader_mmu.concurrentWalks::14            0      0.00%    100.00% # Number of outstanding walks
system.gpu.shader_mmu.concurrentWalks::15            0      0.00%    100.00% # Number of outstanding walks
system.gpu.shader_mmu.concurrentWalks::total       174122                       # Number of outstanding walks
system.gpu.shader_mmu.pagewalkLatency::samples       174122                       # Latency to complete the pagewalk
system.gpu.shader_mmu.pagewalkLatency::mean            0                       # Latency to complete the pagewalk
system.gpu.shader_mmu.pagewalkLatency::gmean            0                       # Latency to complete the pagewalk
system.gpu.shader_mmu.pagewalkLatency::stdev            0                       # Latency to complete the pagewalk
system.gpu.shader_mmu.pagewalkLatency::0       174122    100.00%    100.00% # Latency to complete the pagewalk
system.gpu.shader_mmu.pagewalkLatency::1            0      0.00%    100.00% # Latency to complete the pagewalk
system.gpu.shader_mmu.pagewalkLatency::2            0      0.00%    100.00% # Latency to complete the pagewalk
system.gpu.shader_mmu.pagewalkLatency::3            0      0.00%    100.00% # Latency to complete the pagewalk
system.gpu.shader_mmu.pagewalkLatency::4            0      0.00%    100.00% # Latency to complete the pagewalk
system.gpu.shader_mmu.pagewalkLatency::5            0      0.00%    100.00% # Latency to complete the pagewalk
system.gpu.shader_mmu.pagewalkLatency::6            0      0.00%    100.00% # Latency to complete the pagewalk
system.gpu.shader_mmu.pagewalkLatency::7            0      0.00%    100.00% # Latency to complete the pagewalk
system.gpu.shader_mmu.pagewalkLatency::8            0      0.00%    100.00% # Latency to complete the pagewalk
system.gpu.shader_mmu.pagewalkLatency::9            0      0.00%    100.00% # Latency to complete the pagewalk
system.gpu.shader_mmu.pagewalkLatency::10            0      0.00%    100.00% # Latency to complete the pagewalk
system.gpu.shader_mmu.pagewalkLatency::11            0      0.00%    100.00% # Latency to complete the pagewalk
system.gpu.shader_mmu.pagewalkLatency::12            0      0.00%    100.00% # Latency to complete the pagewalk
system.gpu.shader_mmu.pagewalkLatency::13            0      0.00%    100.00% # Latency to complete the pagewalk
system.gpu.shader_mmu.pagewalkLatency::14            0      0.00%    100.00% # Latency to complete the pagewalk
system.gpu.shader_mmu.pagewalkLatency::15            0      0.00%    100.00% # Latency to complete the pagewalk
system.gpu.shader_mmu.pagewalkLatency::16            0      0.00%    100.00% # Latency to complete the pagewalk
system.gpu.shader_mmu.pagewalkLatency::17            0      0.00%    100.00% # Latency to complete the pagewalk
system.gpu.shader_mmu.pagewalkLatency::18            0      0.00%    100.00% # Latency to complete the pagewalk
system.gpu.shader_mmu.pagewalkLatency::19            0      0.00%    100.00% # Latency to complete the pagewalk
system.gpu.shader_mmu.pagewalkLatency::20            0      0.00%    100.00% # Latency to complete the pagewalk
system.gpu.shader_mmu.pagewalkLatency::21            0      0.00%    100.00% # Latency to complete the pagewalk
system.gpu.shader_mmu.pagewalkLatency::22            0      0.00%    100.00% # Latency to complete the pagewalk
system.gpu.shader_mmu.pagewalkLatency::23            0      0.00%    100.00% # Latency to complete the pagewalk
system.gpu.shader_mmu.pagewalkLatency::24            0      0.00%    100.00% # Latency to complete the pagewalk
system.gpu.shader_mmu.pagewalkLatency::25            0      0.00%    100.00% # Latency to complete the pagewalk
system.gpu.shader_mmu.pagewalkLatency::26            0      0.00%    100.00% # Latency to complete the pagewalk
system.gpu.shader_mmu.pagewalkLatency::27            0      0.00%    100.00% # Latency to complete the pagewalk
system.gpu.shader_mmu.pagewalkLatency::28            0      0.00%    100.00% # Latency to complete the pagewalk
system.gpu.shader_mmu.pagewalkLatency::29            0      0.00%    100.00% # Latency to complete the pagewalk
system.gpu.shader_mmu.pagewalkLatency::30            0      0.00%    100.00% # Latency to complete the pagewalk
system.gpu.shader_mmu.pagewalkLatency::31            0      0.00%    100.00% # Latency to complete the pagewalk
system.gpu.shader_mmu.pagewalkLatency::total       174122                       # Latency to complete the pagewalk
system.gpu.kernels_started                        255                       # Number of kernels started
system.gpu.kernels_completed                      255                       # Number of kernels completed
system.gpu.ce.device_dtb.hits                       0                       # Number of hits in this TLB
system.gpu.ce.device_dtb.misses                     0                       # Number of misses in this TLB
system.gpu.ce.device_dtb.hitRate                  nan                       # Hit rate for this TLB
system.gpu.ce.host_dtb.hits                    219481                       # Number of hits in this TLB
system.gpu.ce.host_dtb.misses                  174122                       # Number of misses in this TLB
system.gpu.ce.host_dtb.hitRate               0.557620                       # Hit rate for this TLB
system.gpu.ce.numOperations                         3                       # Number of copy/memset operations
system.gpu.ce.opBytesRead                    50380812                       # Number of copy bytes read
system.gpu.ce.opBytesWritten                 50380812                       # Number of copy/memset bytes written
system.gpu.ce.opTimeTicks                 15599127291                       # Total time spent in copy/memset operations
system.gpu.shader_cores0.itb.hits                   0                       # Number of hits in this TLB
system.gpu.shader_cores0.itb.misses                 0                       # Number of misses in this TLB
system.gpu.shader_cores0.itb.hitRate              nan                       # Hit rate for this TLB
system.gpu.shader_cores0.local_loads                0                       # Number of loads from local space
system.gpu.shader_cores0.local_stores               0                       # Number of stores to local space
system.gpu.shader_cores0.shared_loads         5282560                       # Number of loads from shared space
system.gpu.shader_cores0.shared_stores        2249215                       # Number of stores to shared space
system.gpu.shader_cores0.param_kernel_loads      1353504                       # Number of loads from kernel parameter space
system.gpu.shader_cores0.param_local_loads            0                       # Number of loads from local parameter space
system.gpu.shader_cores0.param_local_stores            0                       # Number of stores to local parameter space
system.gpu.shader_cores0.const_loads                0                       # Number of loads from constant space
system.gpu.shader_cores0.tex_loads                  0                       # Number of loads from texture space
system.gpu.shader_cores0.global_loads         1192703                       # Number of loads from global space
system.gpu.shader_cores0.global_stores        1056512                       # Number of stores to global space
system.gpu.shader_cores0.surf_loads                 0                       # Number of loads from surface space
system.gpu.shader_cores0.generic_loads              0                       # Number of loads from generic spaces (global, shared, local)
system.gpu.shader_cores0.generic_stores             0                       # Number of stores to generic spaces (global, shared, local)
system.gpu.shader_cores0.inst_cache_requests           36                       # Number of instruction cache requests sent
system.gpu.shader_cores0.inst_cache_retries            0                       # Number of instruction cache retries
system.gpu.shader_cores0.inst_counts::0             0                       # Inst counts: 1: ALU, 2: MAD, 3: CTRL, 4: SFU, 5: MEM, 6: TEX, 7: NOP
system.gpu.shader_cores0.inst_counts::1      35834437                       # Inst counts: 1: ALU, 2: MAD, 3: CTRL, 4: SFU, 5: MEM, 6: TEX, 7: NOP
system.gpu.shader_cores0.inst_counts::2             0                       # Inst counts: 1: ALU, 2: MAD, 3: CTRL, 4: SFU, 5: MEM, 6: TEX, 7: NOP
system.gpu.shader_cores0.inst_counts::3       6334945                       # Inst counts: 1: ALU, 2: MAD, 3: CTRL, 4: SFU, 5: MEM, 6: TEX, 7: NOP
system.gpu.shader_cores0.inst_counts::4             0                       # Inst counts: 1: ALU, 2: MAD, 3: CTRL, 4: SFU, 5: MEM, 6: TEX, 7: NOP
system.gpu.shader_cores0.inst_counts::5      11134494                       # Inst counts: 1: ALU, 2: MAD, 3: CTRL, 4: SFU, 5: MEM, 6: TEX, 7: NOP
system.gpu.shader_cores0.inst_counts::6             0                       # Inst counts: 1: ALU, 2: MAD, 3: CTRL, 4: SFU, 5: MEM, 6: TEX, 7: NOP
system.gpu.shader_cores0.inst_counts::7             0                       # Inst counts: 1: ALU, 2: MAD, 3: CTRL, 4: SFU, 5: MEM, 6: TEX, 7: NOP
system.gpu.shader_cores0.activeCycles        13828987                       # Number of cycles this shader was executing a CTA
system.gpu.shader_cores0.notStalledCycles      4398560                       # Number of cycles this shader was actually executing at least one instance
system.gpu.shader_cores0.instInstances       53303876                       # Total instructions executed by all PEs in the core
[...]
system.ruby.L1Cache_Controller.I.Ifetch::total          740                      
system.ruby.L1Cache_Controller.I.Store   |          23    100.00%    100.00% |           0      0.00%    100.00% |           0      0.00%    100.00% |           0      0.00%    100.00% |           0      0.00%    100.00% |           0      0.00%    100.00% |           0      0.00%    100.00% |           0      0.00%    100.00%
system.ruby.L1Cache_Controller.I.Store::total           23                      
system.ruby.L1Cache_Controller.I.L1_Replacement |         372      0.04%      0.04% |           0      0.00%      0.04% |      215405     25.01%     25.06% |      214975     24.96%     50.02% |      216312     25.12%     75.14% |      214106     24.86%    100.00% |           0      0.00%    100.00% |           9      0.00%    100.00%
system.ruby.L1Cache_Controller.I.L1_Replacement::total       861179                      
system.ruby.L1Cache_Controller.S.Ifetch  |    66416376    100.00%    100.00% |           0      0.00%    100.00% |           0      0.00%    100.00% |           0      0.00%    100.00% |           0      0.00%    100.00% |           0      0.00%    100.00% |           0      0.00%    100.00% |           0      0.00%    100.00%
system.ruby.L1Cache_Controller.S.Ifetch::total     66416376                      
system.ruby.L1Cache_Controller.S.Inv     |         962     21.15%     21.15% |           0      0.00%     21.15% |         891     19.59%     40.74% |         895     19.68%     60.42% |         950     20.89%     81.31% |         850     18.69%    100.00% |           0      0.00%    100.00% |           0      0.00%    100.00%
system.ruby.L1Cache_Controller.S.Inv::total         4548                      
system.ruby.L1Cache_Controller.S.L1_Replacement |         154     25.04%     25.04% |           0      0.00%     25.04% |          98     15.93%     40.98% |         106     17.24%     58.21% |         137     22.28%     80.49% |         120     19.51%    100.00% |           0      0.00%    100.00% |           0      0.00%    100.00%
system.ruby.L1Cache_Controller.S.L1_Replacement::total          615                      
system.ruby.L1Cache_Controller.E.Load    |    12638842     99.99%     99.99% |           0      0.00%     99.99% |         228      0.00%     99.99% |         250      0.00%    100.00% |         242      0.00%    100.00% |         286      0.00%    100.00% |           0      0.00%    100.00% |           0      0.00%    100.00%
system.ruby.L1Cache_Controller.E.Load::total     12639848                      
system.ruby.L1Cache_Controller.E.Store   |         160    100.00%    100.00% |           0      0.00%    100.00% |           0      0.00%    100.00% |           0      0.00%    100.00% |           0      0.00%    100.00% |           0      0.00%    100.00% |           0      0.00%    100.00% |           0      0.00%    100.00%
system.ruby.L1Cache_Controller.E.Store::total          160                      
system.ruby.L1Cache_Controller.E.Inv     |        3621      0.63%      0.63% |           0      0.00%      0.63% |      143308     24.87%     25.50% |      142835     24.79%     50.29% |      143989     24.99%     75.29% |      142391     24.71%    100.00% |           0      0.00%    100.00% |           0      0.00%    100.00%
system.ruby.L1Cache_Controller.E.Inv::total       576144                      
system.ruby.L1Cache_Controller.E.L1_Replacement |       41255      7.56%      7.56% |           0      0.00%      7.56% |       28435      5.21%     12.78% |       26926      4.94%     17.71% |       27762      5.09%     22.80% |       27475      5.04%     27.84% |           0      0.00%     27.84% |      393603     72.16%    100.00%
system.ruby.L1Cache_Controller.E.L1_Replacement::total       545456                      
system.ruby.L1Cache_Controller.E.Fwd_GETX |           0      0.00%      0.00% |           0      0.00%      0.00% |           0      0.00%      0.00% |           0      0.00%      0.00% |           0      0.00%      0.00% |           1    100.00%    100.00% |           0      0.00%    100.00% |           0      0.00%    100.00%
system.ruby.L1Cache_Controller.E.Fwd_GETX::total            1                      
system.ruby.L1Cache_Controller.E.Fwd_GETS |           0      0.00%      0.00% |           0      0.00%      0.00% |         167     23.82%     23.82% |         183     26.11%     49.93% |         184     26.25%     76.18% |         167     23.82%    100.00% |           0      0.00%    100.00% |           0      0.00%    100.00%
system.ruby.L1Cache_Controller.E.Fwd_GETS::total          701                      
system.ruby.L1Cache_Controller.M.Load    |      826921    100.00%    100.00% |           0      0.00%    100.00% |           1      0.00%    100.00% |           0      0.00%    100.00% |           2      0.00%    100.00% |           1      0.00%    100.00% |           0      0.00%    100.00% |           0      0.00%    100.00%
system.ruby.L1Cache_Controller.M.Load::total       826925                      
system.ruby.L1Cache_Controller.M.Store   |     6753772    100.00%    100.00% |           0      0.00%    100.00% |           0      0.00%    100.00% |           0      0.00%    100.00% |           0      0.00%    100.00% |           0      0.00%    100.00% |           0      0.00%    100.00% |           0      0.00%    100.00%
system.ruby.L1Cache_Controller.M.Store::total      6753772                      
system.ruby.L1Cache_Controller.M.Inv     |         331      0.12%      0.12% |           0      0.00%      0.12% |       71813     24.98%     25.10% |       71835     24.99%     50.09% |       71984     25.04%     75.13% |       71473     24.86%    100.00% |           0      0.00%    100.00% |          10      0.00%    100.00%
system.ruby.L1Cache_Controller.M.Inv::total       287446                      
system.ruby.L1Cache_Controller.M.L1_Replacement |      268215     35.31%     35.31% |           0      0.00%     35.31% |       24813      3.27%     38.57% |       23816      3.13%     41.71% |       24915      3.28%     44.99% |       24358      3.21%     48.19% |           0      0.00%     48.19% |      393586     51.81%    100.00%
system.ruby.L1Cache_Controller.M.L1_Replacement::total       759703                      
system.ruby.L1Cache_Controller.M.Fwd_GETX |           0      0.00%      0.00% |           0      0.00%      0.00% |           0      0.00%      0.00% |           0      0.00%      0.00% |           0      0.00%      0.00% |           0      0.00%      0.00% |           0      0.00%      0.00% |           7    100.00%    100.00%
system.ruby.L1Cache_Controller.M.Fwd_GETX::total            7                      
system.ruby.L1Cache_Controller.M.Fwd_GETS |           0      0.00%      0.00% |           0      0.00%      0.00% |           1      5.88%      5.88% |           6     35.29%     41.18% |           0      0.00%     41.18% |          10     58.82%    100.00% |           0      0.00%    100.00% |           0      0.00%    100.00%
system.ruby.L1Cache_Controller.M.Fwd_GETS::total           17                      
system.ruby.L1Cache_Controller.IS.Inv    |           0      0.00%      0.00% |           0      0.00%      0.00% |          25     22.73%     22.73% |          33     30.00%     52.73% |          29     26.36%     79.09% |          23     20.91%    100.00% |           0      0.00%    100.00% |           0      0.00%    100.00%
system.ruby.L1Cache_Controller.IS.Inv::total          110                      
system.ruby.L1Cache_Controller.IS.L1_Replacement |           0      0.00%      0.00% |           0      0.00%      0.00% |      653201      8.79%      8.79% |      652915      8.79%     17.58% |      640167      8.62%     26.19% |      652263      8.78%     34.97% |           0      0.00%     34.97% |     4832180     65.03%    100.00%
system.ruby.L1Cache_Controller.IS.L1_Replacement::total      7430726                      
system.ruby.L1Cache_Controller.IS.Data_Exclusive |       45240      4.03%      4.03% |           0      0.00%      4.03% |      171910     15.31%     19.34% |      169944     15.14%     34.48% |      171935     15.31%     49.79% |      170034     15.15%     64.94% |           0      0.00%     64.94% |      393603     35.06%    100.00%
system.ruby.L1Cache_Controller.IS.Data_Exclusive::total      1122666                      
system.ruby.L1Cache_Controller.IS.DataS_fromL1 |           0      0.00%      0.00% |           0      0.00%      0.00% |         172     23.76%     23.76% |         164     22.65%     46.41% |         227     31.35%     77.76% |         161     22.24%    100.00% |           0      0.00%    100.00% |           0      0.00%    100.00%
system.ruby.L1Cache_Controller.IS.DataS_fromL1::total          724                      
system.ruby.L1Cache_Controller.IS.Data_all_Acks |        1178     31.14%     31.14% |           0      0.00%     31.14% |         649     17.16%     48.30% |         648     17.13%     65.42% |         676     17.87%     83.29% |         632     16.71%    100.00% |           0      0.00%    100.00% |           0      0.00%    100.00%
system.ruby.L1Cache_Controller.IS.Data_all_Acks::total         3783                      
system.ruby.L1Cache_Controller.IM.L1_Replacement |           0      0.00%      0.00% |           0      0.00%      0.00% |      697431      8.11%      8.11% |      711968      8.28%     16.38% |      711182      8.27%     24.65% |      717970      8.35%     33.00% |           0      0.00%     33.00% |     5764068     67.00%    100.00%
system.ruby.L1Cache_Controller.IM.L1_Replacement::total      8602619                      
system.ruby.L1Cache_Controller.IM.Data_all_Acks |      268400     25.63%     25.63% |           0      0.00%     25.63% |       96627      9.23%     34.86% |       95657      9.14%     44.00% |       96899      9.25%     53.25% |       95841      9.15%     62.41% |           0      0.00%     62.41% |      393603     37.59%    100.00%
system.ruby.L1Cache_Controller.IM.Data_all_Acks::total      1047027                      
system.ruby.L1Cache_Controller.IS_I.L1_Replacement |           0      0.00%      0.00% |           0      0.00%      0.00% |           0      0.00%      0.00% |           0      0.00%      0.00% |           1    100.00%    100.00% |           0      0.00%    100.00% |           0      0.00%    100.00% |           0      0.00%    100.00%
system.ruby.L1Cache_Controller.IS_I.L1_Replacement::total            1                      
system.ruby.L1Cache_Controller.IS_I.Data_all_Acks |           0      0.00%      0.00% |           0      0.00%      0.00% |          25     22.73%     22.73% |          33     30.00%     52.73% |          29     26.36%     79.09% |          23     20.91%    100.00% |           0      0.00%    100.00% |           0      0.00%    100.00%
system.ruby.L1Cache_Controller.IS_I.Data_all_Acks::total          110                      
system.ruby.L1Cache_Controller.M_I.Ifetch |           1    100.00%    100.00% |           0      0.00%    100.00% |           0      0.00%    100.00% |           0      0.00%    100.00% |           0      0.00%    100.00% |           0      0.00%    100.00% |           0      0.00%    100.00% |           0      0.00%    100.00%
system.ruby.L1Cache_Controller.M_I.Ifetch::total            1                      
system.ruby.L1Cache_Controller.M_I.Inv   |           0      0.00%      0.00% |           0      0.00%      0.00% |       22883     25.11%     25.11% |       22888     25.11%     50.22% |       22653     24.86%     75.08% |       22714     24.92%    100.00% |           0      0.00%    100.00% |           0      0.00%    100.00%
system.ruby.L1Cache_Controller.M_I.Inv::total        91138                      
system.ruby.L1Cache_Controller.M_I.Fwd_GETS |           0      0.00%      0.00% |           0      0.00%      0.00% |           0      0.00%      0.00% |           1     16.67%     16.67% |           2     33.33%     50.00% |           3     50.00%    100.00% |           0      0.00%    100.00% |           0      0.00%    100.00%
system.ruby.L1Cache_Controller.M_I.Fwd_GETS::total            6                      
system.ruby.L1Cache_Controller.M_I.WB_Ack |      309470     25.49%     25.49% |           0      0.00%     25.49% |       30365      2.50%     27.99% |       27853      2.29%     30.29% |       30022      2.47%     32.76% |       29116      2.40%     35.16% |           0      0.00%     35.16% |      787189     64.84%    100.00%
system.ruby.L1Cache_Controller.M_I.WB_Ack::total      1214015                      
system.ruby.L1Cache_Controller.SINK_WB_ACK.Load |           0      0.00%      0.00% |           0      0.00%      0.00% |           1     50.00%     50.00% |           1     50.00%    100.00% |           0      0.00%    100.00% |           0      0.00%    100.00% |           0      0.00%    100.00% |           0      0.00%    100.00%
system.ruby.L1Cache_Controller.SINK_WB_ACK.Load::total            2                      
system.ruby.L1Cache_Controller.SINK_WB_ACK.Inv |           0      0.00%      0.00% |           0      0.00%      0.00% |           0      0.00%      0.00% |           0      0.00%      0.00% |           0      0.00%      0.00% |           1    100.00%    100.00% |           0      0.00%    100.00% |           0      0.00%    100.00%
system.ruby.L1Cache_Controller.SINK_WB_ACK.Inv::total            1                      
system.ruby.L1Cache_Controller.SINK_WB_ACK.WB_Ack |           0      0.00%      0.00% |           0      0.00%      0.00% |       22883     25.11%     25.11% |       22889     25.11%     50.22% |       22655     24.86%     75.08% |       22717     24.92%    100.00% |           0      0.00%    100.00% |           0      0.00%    100.00%
system.ruby.L1Cache_Controller.SINK_WB_ACK.WB_Ack::total        91144                      
system.ruby.L2Cache_Controller.L1_GET_INSTR         1322      0.00%      0.00%
system.ruby.L2Cache_Controller.L1_GETS        1126033      0.00%      0.00%
system.ruby.L2Cache_Controller.L1_GETX        1047027      0.00%      0.00%
system.ruby.L2Cache_Controller.L1_PUTX        1214024      0.00%      0.00%
system.ruby.L2Cache_Controller.L1_PUTX_old       100089      0.00%      0.00%
system.ruby.L2Cache_Controller.L2_Replacement       711724      0.00%      0.00%
system.ruby.L2Cache_Controller.L2_Replacement_clean      3932608      0.00%      0.00%
system.ruby.L2Cache_Controller.Mem_Data       2158873      0.00%      0.00%
system.ruby.L2Cache_Controller.Mem_Ack        2156908      0.00%      0.00%
system.ruby.L2Cache_Controller.WB_Data         333382      0.00%      0.00%
system.ruby.L2Cache_Controller.WB_Data_clean        45926      0.00%      0.00%
system.ruby.L2Cache_Controller.Ack               2113      0.00%      0.00%
system.ruby.L2Cache_Controller.Ack_all         579265      0.00%      0.00%
system.ruby.L2Cache_Controller.Unblock            724      0.00%      0.00%
system.ruby.L2Cache_Controller.Exclusive_Unblock      2169693      0.00%      0.00%
system.ruby.L2Cache_Controller.NP.L1_GET_INSTR         1184      0.00%      0.00%
system.ruby.L2Cache_Controller.NP.L1_GETS      1113201      0.00%      0.00%
system.ruby.L2Cache_Controller.NP.L1_GETX      1044488      0.00%      0.00%
system.ruby.L2Cache_Controller.NP.L1_PUTX_old        85644      0.00%      0.00%
system.ruby.L2Cache_Controller.SS.L1_GET_INSTR          123      0.00%      0.00%
system.ruby.L2Cache_Controller.SS.L1_GETS            3      0.00%      0.00%
system.ruby.L2Cache_Controller.SS.L1_PUTX            5      0.00%      0.00%
system.ruby.L2Cache_Controller.SS.L2_Replacement           21      0.00%      0.00%
system.ruby.L2Cache_Controller.SS.L2_Replacement_clean         3100      0.00%      0.00%
system.ruby.L2Cache_Controller.M.L1_GET_INSTR            1      0.00%      0.00%
system.ruby.L2Cache_Controller.M.L1_GETS        10749      0.00%      0.00%
system.ruby.L2Cache_Controller.M.L1_GETX         2531      0.00%      0.00%
system.ruby.L2Cache_Controller.M.L2_Replacement       711160      0.00%      0.00%
system.ruby.L2Cache_Controller.M.L2_Replacement_clean       487899      0.00%      0.00%
system.ruby.L2Cache_Controller.MT.L1_GETS          724      0.00%      0.00%
system.ruby.L2Cache_Controller.MT.L1_GETX            8      0.00%      0.00%
system.ruby.L2Cache_Controller.MT.L1_PUTX      1214015      0.00%      0.00%
system.ruby.L2Cache_Controller.MT.L2_Replacement          536      0.00%      0.00%
system.ruby.L2Cache_Controller.MT.L2_Replacement_clean       954192      0.00%      0.00%
system.ruby.L2Cache_Controller.M_I.L1_GETS           30      0.00%      0.00%
system.ruby.L2Cache_Controller.M_I.L1_PUTX_old         5493      0.00%      0.00%
system.ruby.L2Cache_Controller.M_I.Mem_Ack      2156908      0.00%      0.00%
system.ruby.L2Cache_Controller.MT_I.L1_PUTX_old            6      0.00%      0.00%
system.ruby.L2Cache_Controller.MT_I.WB_Data          523      0.00%      0.00%
system.ruby.L2Cache_Controller.MT_I.Ack_all           13      0.00%      0.00%
system.ruby.L2Cache_Controller.MCT_I.L1_GETS           25      0.00%      0.00%
system.ruby.L2Cache_Controller.MCT_I.L1_PUTX_old         8944      0.00%      0.00%
system.ruby.L2Cache_Controller.MCT_I.WB_Data       332839      0.00%      0.00%
system.ruby.L2Cache_Controller.MCT_I.WB_Data_clean        45222      0.00%      0.00%
system.ruby.L2Cache_Controller.MCT_I.Ack_all       576131      0.00%      0.00%
system.ruby.L2Cache_Controller.I_I.Ack           2092      0.00%      0.00%
system.ruby.L2Cache_Controller.I_I.Ack_all         3100      0.00%      0.00%
system.ruby.L2Cache_Controller.S_I.Ack             21      0.00%      0.00%
system.ruby.L2Cache_Controller.S_I.Ack_all           21      0.00%      0.00%
system.ruby.L2Cache_Controller.ISS.L1_GETS         1284      0.00%      0.00%
system.ruby.L2Cache_Controller.ISS.L1_PUTX_old            2      0.00%      0.00%
system.ruby.L2Cache_Controller.ISS.L2_Replacement_clean      1559529      0.00%      0.00%
system.ruby.L2Cache_Controller.ISS.Mem_Data      1111917      0.00%      0.00%
system.ruby.L2Cache_Controller.IS.L1_GET_INSTR           14      0.00%      0.00%
system.ruby.L2Cache_Controller.IS.L2_Replacement_clean         2168      0.00%      0.00%
system.ruby.L2Cache_Controller.IS.Mem_Data         2468      0.00%      0.00%
system.ruby.L2Cache_Controller.IM.L1_GETS            1      0.00%      0.00%
system.ruby.L2Cache_Controller.IM.L2_Replacement_clean       909298      0.00%      0.00%
system.ruby.L2Cache_Controller.IM.Mem_Data      1044488      0.00%      0.00%
system.ruby.L2Cache_Controller.MT_MB.L1_GETS           16      0.00%      0.00%
system.ruby.L2Cache_Controller.MT_MB.L2_Replacement            7      0.00%      0.00%
system.ruby.L2Cache_Controller.MT_MB.L2_Replacement_clean        16410      0.00%      0.00%
system.ruby.L2Cache_Controller.MT_MB.Exclusive_Unblock      2169693      0.00%      0.00%
system.ruby.L2Cache_Controller.MT_IIB.L1_PUTX            4      0.00%      0.00%
system.ruby.L2Cache_Controller.MT_IIB.L2_Replacement_clean           11      0.00%      0.00%
system.ruby.L2Cache_Controller.MT_IIB.WB_Data            2      0.00%      0.00%
system.ruby.L2Cache_Controller.MT_IIB.WB_Data_clean           65      0.00%      0.00%
system.ruby.L2Cache_Controller.MT_IIB.Unblock          657      0.00%      0.00%
system.ruby.L2Cache_Controller.MT_IB.L2_Replacement_clean            1      0.00%      0.00%
system.ruby.L2Cache_Controller.MT_IB.WB_Data           18      0.00%      0.00%
system.ruby.L2Cache_Controller.MT_IB.WB_Data_clean          639      0.00%      0.00%
system.ruby.L2Cache_Controller.MT_SB.Unblock           67      0.00%      0.00%

---------- End Simulation Statistics   ----------
