
---------- Begin Simulation Statistics ----------
sim_seconds                                  0.045563                       # Number of seconds simulated
sim_ticks                                 45562786000                       # Number of ticks simulated
final_tick                                45562786000                       # Number of ticks from beginning of simulation (restored from checkpoints and never reset)
sim_freq                                 1000000000000                       # Frequency of simulated ticks
host_inst_rate                                 160369                       # Simulator instruction rate (inst/s)
host_op_rate                                   313128                       # Simulator op (including micro ops) rate (op/s)
host_tick_rate                              393627457                       # Simulator tick rate (ticks/s)
host_mem_usage                                4606032                       # Number of bytes of host memory used
host_seconds                                   115.75                       # Real time elapsed on the host
sim_insts                                    18562921                       # Number of instructions simulated
sim_ops                                      36244844                       # Number of ops (including micro ops) simulated
system.voltage_domain.voltage                       1                       # Voltage in Volts
system.clk_domain.clock                          1000                       # Clock period in ticks
system.mem_ctrls.bytes_read::ruby.dir_cntrl0     27233920                       # Number of bytes read from this memory
system.mem_ctrls.bytes_read::total           27233920                       # Number of bytes read from this memory
system.mem_ctrls.bytes_written::ruby.dir_cntrl0      6732928                       # Number of bytes written to this memory
system.mem_ctrls.bytes_written::total         6732928                       # Number of bytes written to this memory
system.mem_ctrls.num_reads::ruby.dir_cntrl0       212765                       # Number of read requests responded to by this memory
system.mem_ctrls.num_reads::total              212765                       # Number of read requests responded to by this memory
system.mem_ctrls.num_writes::ruby.dir_cntrl0        52601                       # Number of write requests responded to by this memory
system.mem_ctrls.num_writes::total              52601                       # Number of write requests responded to by this memory
system.mem_ctrls.bw_read::ruby.dir_cntrl0    597722887                       # Total read bandwidth from this memory (bytes/s)
system.mem_ctrls.bw_read::total             597722887                       # Total read bandwidth from this memory (bytes/s)
system.mem_ctrls.bw_write::ruby.dir_cntrl0    147772526                       # Write bandwidth from this memory (bytes/s)
system.mem_ctrls.bw_write::total            147772526                       # Write bandwidth from this memory (bytes/s)
system.mem_ctrls.bw_total::ruby.dir_cntrl0    745495414                       # Total bandwidth to/from this memory (bytes/s)
system.mem_ctrls.bw_total::total            745495414                       # Total bandwidth to/from this memory (bytes/s)
system.mem_ctrls.readReqs                      212765                       # Number of read requests accepted
system.mem_ctrls.writeReqs                      52601                       # Number of write requests accepted
system.mem_ctrls.readBursts                    425530                       # Number of DRAM read bursts, including those serviced by the write queue
system.mem_ctrls.writeBursts                   105202                       # Number of DRAM write bursts, including those merged in the write queue
system.mem_ctrls.bytesReadDRAM               24313664                       # Total number of bytes read from DRAM
system.mem_ctrls.bytesReadWrQ                 2920256                       # Total number of bytes read from write queue
system.mem_ctrls.bytesWritten                 3932480                       # Total number of bytes written to DRAM
system.mem_ctrls.bytesReadSys                27233920                       # Total read bytes from the system interface side
system.mem_ctrls.bytesWrittenSys              6732928                       # Total written bytes from the system interface side
system.mem_ctrls.servicedByWrQ                  45629                       # Number of DRAM read bursts serviced by the write queue
system.mem_ctrls.mergedWrBursts                 43736                       # Number of DRAM write bursts merged with an existing one
system.mem_ctrls.neitherReadNorWriteReqs            0                       # Number of requests that are neither read nor write
system.mem_ctrls.perBankRdBursts::0             19756                       # Per bank write bursts
system.mem_ctrls.perBankRdBursts::1             10162                       # Per bank write bursts
system.mem_ctrls.perBankRdBursts::2              6540                       # Per bank write bursts
system.mem_ctrls.perBankRdBursts::3              7772                       # Per bank write bursts
system.mem_ctrls.perBankRdBursts::4              6836                       # Per bank write bursts
system.mem_ctrls.perBankRdBursts::5              7074                       # Per bank write bursts
system.mem_ctrls.perBankRdBursts::6             21000                       # Per bank write bursts
system.mem_ctrls.perBankRdBursts::7             31739                       # Per bank write bursts
system.mem_ctrls.perBankRdBursts::8            192946                       # Per bank write bursts
system.mem_ctrls.perBankRdBursts::9              8361                       # Per bank write bursts
system.mem_ctrls.perBankRdBursts::10             7119                       # Per bank write bursts
system.mem_ctrls.perBankRdBursts::11             6702                       # Per bank write bursts
system.mem_ctrls.perBankRdBursts::12            32038                       # Per bank write bursts
system.mem_ctrls.perBankRdBursts::13             6718                       # Per bank write bursts
system.mem_ctrls.perBankRdBursts::14             7046                       # Per bank write bursts
system.mem_ctrls.perBankRdBursts::15             8092                       # Per bank write bursts
system.mem_ctrls.perBankWrBursts::0              3862                       # Per bank write bursts
system.mem_ctrls.perBankWrBursts::1              3886                       # Per bank write bursts
system.mem_ctrls.perBankWrBursts::2              3862                       # Per bank write bursts
system.mem_ctrls.perBankWrBursts::3              3938                       # Per bank write bursts
system.mem_ctrls.perBankWrBursts::4              4105                       # Per bank write bursts
system.mem_ctrls.perBankWrBursts::5              3740                       # Per bank write bursts
system.mem_ctrls.perBankWrBursts::6              3909                       # Per bank write bursts
system.mem_ctrls.perBankWrBursts::7              4176                       # Per bank write bursts
system.mem_ctrls.perBankWrBursts::8              3488                       # Per bank write bursts
system.mem_ctrls.perBankWrBursts::9              3718                       # Per bank write bursts
system.mem_ctrls.perBankWrBursts::10             3945                       # Per bank write bursts
system.mem_ctrls.perBankWrBursts::11             3662                       # Per bank write bursts
system.mem_ctrls.perBankWrBursts::12             3704                       # Per bank write bursts
system.mem_ctrls.perBankWrBursts::13             3668                       # Per bank write bursts
system.mem_ctrls.perBankWrBursts::14             3778                       # Per bank write bursts
system.mem_ctrls.perBankWrBursts::15             4004                       # Per bank write bursts
system.mem_ctrls.numRdRetry                     12946                       # Number of times read queue was full causing retry
system.mem_ctrls.numWrRetry                      1282                       # Number of times write queue was full causing retry
system.mem_ctrls.totGap                   45562697000                       # Total gap between requests
system.mem_ctrls.readPktSize::0                     0                       # Read request sizes (log2)
system.mem_ctrls.readPktSize::1                     0                       # Read request sizes (log2)
system.mem_ctrls.readPktSize::2                     0                       # Read request sizes (log2)
system.mem_ctrls.readPktSize::3                     0                       # Read request sizes (log2)
system.mem_ctrls.readPktSize::4                     0                       # Read request sizes (log2)
system.mem_ctrls.readPktSize::5                     0                       # Read request sizes (log2)
system.mem_ctrls.readPktSize::6                425530                       # Read request sizes (log2)
system.mem_ctrls.writePktSize::0                    0                       # Write request sizes (log2)
system.mem_ctrls.writePktSize::1                    0                       # Write request sizes (log2)
system.mem_ctrls.writePktSize::2                    0                       # Write request sizes (log2)
system.mem_ctrls.writePktSize::3                    0                       # Write request sizes (log2)
system.mem_ctrls.writePktSize::4                    0                       # Write request sizes (log2)
system.mem_ctrls.writePktSize::5                    0                       # Write request sizes (log2)
system.mem_ctrls.writePktSize::6               105202                       # Write request sizes (log2)
system.mem_ctrls.rdQLenPdf::0                  163797                       # What read queue length does an incoming req see
system.mem_ctrls.rdQLenPdf::1                  164363                       # What read queue length does an incoming req see
system.mem_ctrls.rdQLenPdf::2                    3521                       # What read queue length does an incoming req see
system.mem_ctrls.rdQLenPdf::3                    4045                       # What read queue length does an incoming req see
system.mem_ctrls.rdQLenPdf::4                    4572                       # What read queue length does an incoming req see
system.mem_ctrls.rdQLenPdf::5                    4882                       # What read queue length does an incoming req see
system.mem_ctrls.rdQLenPdf::6                    4004                       # What read queue length does an incoming req see
system.mem_ctrls.rdQLenPdf::7                    3509                       # What read queue length does an incoming req see
system.mem_ctrls.rdQLenPdf::8                    2744                       # What read queue length does an incoming req see
system.mem_ctrls.rdQLenPdf::9                    2384                       # What read queue length does an incoming req see
system.mem_ctrls.rdQLenPdf::10                   1957                       # What read queue length does an incoming req see
system.mem_ctrls.rdQLenPdf::11                   1721                       # What read queue length does an incoming req see
system.mem_ctrls.rdQLenPdf::12                   1373                       # What read queue length does an incoming req see
system.mem_ctrls.rdQLenPdf::13                   1126                       # What read queue length does an incoming req see
system.mem_ctrls.rdQLenPdf::14                    858                       # What read queue length does an incoming req see
system.mem_ctrls.rdQLenPdf::15                    808                       # What read queue length does an incoming req see
system.mem_ctrls.rdQLenPdf::16                    103                       # What read queue length does an incoming req see
system.mem_ctrls.rdQLenPdf::17                    100                       # What read queue length does an incoming req see
system.mem_ctrls.rdQLenPdf::18                     80                       # What read queue length does an incoming req see
system.mem_ctrls.rdQLenPdf::19                     75                       # What read queue length does an incoming req see
system.mem_ctrls.rdQLenPdf::20                     66                       # What read queue length does an incoming req see
system.mem_ctrls.rdQLenPdf::21                     57                       # What read queue length does an incoming req see
system.mem_ctrls.rdQLenPdf::22                     54                       # What read queue length does an incoming req see
system.mem_ctrls.rdQLenPdf::23                     61                       # What read queue length does an incoming req see
system.mem_ctrls.rdQLenPdf::24                     66                       # What read queue length does an incoming req see
system.mem_ctrls.rdQLenPdf::25                     70                       # What read queue length does an incoming req see
system.mem_ctrls.rdQLenPdf::26                     72                       # What read queue length does an incoming req see
system.mem_ctrls.rdQLenPdf::27                     77                       # What read queue length does an incoming req see
system.mem_ctrls.rdQLenPdf::28                     85                       # What read queue length does an incoming req see
system.mem_ctrls.rdQLenPdf::29                     94                       # What read queue length does an incoming req see
system.mem_ctrls.rdQLenPdf::30                   6607                       # What read queue length does an incoming req see
system.mem_ctrls.rdQLenPdf::31                   6570                       # What read queue length does an incoming req see
system.mem_ctrls.wrQLenPdf::0                       1                       # What write queue length does an incoming req see
system.mem_ctrls.wrQLenPdf::1                       1                       # What write queue length does an incoming req see
system.mem_ctrls.wrQLenPdf::2                       1                       # What write queue length does an incoming req see
system.mem_ctrls.wrQLenPdf::3                       1                       # What write queue length does an incoming req see
system.mem_ctrls.wrQLenPdf::4                       1                       # What write queue length does an incoming req see
system.mem_ctrls.wrQLenPdf::5                       1                       # What write queue length does an incoming req see
system.mem_ctrls.wrQLenPdf::6                       1                       # What write queue length does an incoming req see
system.mem_ctrls.wrQLenPdf::7                       1                       # What write queue length does an incoming req see
system.mem_ctrls.wrQLenPdf::8                       1                       # What write queue length does an incoming req see
system.mem_ctrls.wrQLenPdf::9                       1                       # What write queue length does an incoming req see
system.mem_ctrls.wrQLenPdf::10                      1                       # What write queue length does an incoming req see
system.mem_ctrls.wrQLenPdf::11                      1                       # What write queue length does an incoming req see
system.mem_ctrls.wrQLenPdf::12                      1                       # What write queue length does an incoming req see
system.mem_ctrls.wrQLenPdf::13                      1                       # What write queue length does an incoming req see
system.mem_ctrls.wrQLenPdf::14                      1                       # What write queue length does an incoming req see
system.mem_ctrls.wrQLenPdf::15                    536                       # What write queue length does an incoming req see
system.mem_ctrls.wrQLenPdf::16                    558                       # What write queue length does an incoming req see
system.mem_ctrls.wrQLenPdf::17                   2017                       # What write queue length does an incoming req see
system.mem_ctrls.wrQLenPdf::18                   2108                       # What write queue length does an incoming req see
system.mem_ctrls.wrQLenPdf::19                   2198                       # What write queue length does an incoming req see
system.mem_ctrls.wrQLenPdf::20                   2240                       # What write queue length does an incoming req see
system.mem_ctrls.wrQLenPdf::21                   2629                       # What write queue length does an incoming req see
system.mem_ctrls.wrQLenPdf::22                   2929                       # What write queue length does an incoming req see
system.mem_ctrls.wrQLenPdf::23                   3372                       # What write queue length does an incoming req see
system.mem_ctrls.wrQLenPdf::24                   3236                       # What write queue length does an incoming req see
system.mem_ctrls.wrQLenPdf::25                   3488                       # What write queue length does an incoming req see
system.mem_ctrls.wrQLenPdf::26                   3540                       # What write queue length does an incoming req see
system.mem_ctrls.wrQLenPdf::27                   3705                       # What write queue length does an incoming req see
system.mem_ctrls.wrQLenPdf::28                   3657                       # What write queue length does an incoming req see
system.mem_ctrls.wrQLenPdf::29                   3567                       # What write queue length does an incoming req see
system.mem_ctrls.wrQLenPdf::30                   3587                       # What write queue length does an incoming req see
system.mem_ctrls.wrQLenPdf::31                   3561                       # What write queue length does an incoming req see
system.mem_ctrls.wrQLenPdf::32                   3567                       # What write queue length does an incoming req see
system.mem_ctrls.wrQLenPdf::33                    550                       # What write queue length does an incoming req see
system.mem_ctrls.wrQLenPdf::34                    257                       # What write queue length does an incoming req see
system.mem_ctrls.wrQLenPdf::35                    174                       # What write queue length does an incoming req see
system.mem_ctrls.wrQLenPdf::36                    164                       # What write queue length does an incoming req see
system.mem_ctrls.wrQLenPdf::37                    128                       # What write queue length does an incoming req see
system.mem_ctrls.wrQLenPdf::38                    113                       # What write queue length does an incoming req see
system.mem_ctrls.wrQLenPdf::39                     99                       # What write queue length does an incoming req see
system.mem_ctrls.wrQLenPdf::40                    115                       # What write queue length does an incoming req see
system.mem_ctrls.wrQLenPdf::41                    120                       # What write queue length does an incoming req see
system.mem_ctrls.wrQLenPdf::42                    155                       # What write queue length does an incoming req see
system.mem_ctrls.wrQLenPdf::43                    158                       # What write queue length does an incoming req see
system.mem_ctrls.wrQLenPdf::44                    205                       # What write queue length does an incoming req see
system.mem_ctrls.wrQLenPdf::45                    210                       # What write queue length does an incoming req see
system.mem_ctrls.wrQLenPdf::46                    248                       # What write queue length does an incoming req see
system.mem_ctrls.wrQLenPdf::47                    271                       # What write queue length does an incoming req see
system.mem_ctrls.wrQLenPdf::48                    341                       # What write queue length does an incoming req see
system.mem_ctrls.wrQLenPdf::49                    369                       # What write queue length does an incoming req see
system.mem_ctrls.wrQLenPdf::50                    461                       # What write queue length does an incoming req see
system.mem_ctrls.wrQLenPdf::51                    495                       # What write queue length does an incoming req see
system.mem_ctrls.wrQLenPdf::52                    569                       # What write queue length does an incoming req see
system.mem_ctrls.wrQLenPdf::53                    623                       # What write queue length does an incoming req see
system.mem_ctrls.wrQLenPdf::54                    750                       # What write queue length does an incoming req see
system.mem_ctrls.wrQLenPdf::55                    803                       # What write queue length does an incoming req see
system.mem_ctrls.wrQLenPdf::56                    657                       # What write queue length does an incoming req see
system.mem_ctrls.wrQLenPdf::57                    535                       # What write queue length does an incoming req see
system.mem_ctrls.wrQLenPdf::58                    333                       # What write queue length does an incoming req see
system.mem_ctrls.wrQLenPdf::59                    285                       # What write queue length does an incoming req see
system.mem_ctrls.wrQLenPdf::60                    179                       # What write queue length does an incoming req see
system.mem_ctrls.wrQLenPdf::61                    141                       # What write queue length does an incoming req see
system.mem_ctrls.wrQLenPdf::62                    749                       # What write queue length does an incoming req see
system.mem_ctrls.wrQLenPdf::63                    699                       # What write queue length does an incoming req see
system.mem_ctrls.bytesPerActivate::samples        67769                       # Bytes accessed per row activation
system.mem_ctrls.bytesPerActivate::mean    416.744647                       # Bytes accessed per row activation
system.mem_ctrls.bytesPerActivate::gmean   296.078875                       # Bytes accessed per row activation
system.mem_ctrls.bytesPerActivate::stdev   342.052382                       # Bytes accessed per row activation
system.mem_ctrls.bytesPerActivate::0-127          253      0.37%      0.37% # Bytes accessed per row activation
system.mem_ctrls.bytesPerActivate::128-255        28358     41.85%     42.22% # Bytes accessed per row activation
system.mem_ctrls.bytesPerActivate::256-383         7357     10.86%     53.07% # Bytes accessed per row activation
system.mem_ctrls.bytesPerActivate::384-511        10987     16.21%     69.29% # Bytes accessed per row activation
system.mem_ctrls.bytesPerActivate::512-639         3138      4.63%     73.92% # Bytes accessed per row activation
system.mem_ctrls.bytesPerActivate::640-767         1193      1.76%     75.68% # Bytes accessed per row activation
system.mem_ctrls.bytesPerActivate::768-895         1237      1.83%     77.50% # Bytes accessed per row activation
system.mem_ctrls.bytesPerActivate::896-1023         3899      5.75%     83.26% # Bytes accessed per row activation
system.mem_ctrls.bytesPerActivate::1024-1151        11347     16.74%    100.00% # Bytes accessed per row activation
system.mem_ctrls.bytesPerActivate::total        67769                       # Bytes accessed per row activation
system.mem_ctrls.rdPerTurnAround::samples         3765                       # Reads before turning the bus around for writes
system.mem_ctrls.rdPerTurnAround::mean     100.901195                       # Reads before turning the bus around for writes
system.mem_ctrls.rdPerTurnAround::gmean     25.199091                       # Reads before turning the bus around for writes
system.mem_ctrls.rdPerTurnAround::stdev    903.707105                       # Reads before turning the bus around for writes
system.mem_ctrls.rdPerTurnAround::0-2047         3735     99.20%     99.20% # Reads before turning the bus around for writes
system.mem_ctrls.rdPerTurnAround::2048-4095            2      0.05%     99.26% # Reads before turning the bus around for writes
system.mem_ctrls.rdPerTurnAround::4096-6143           14      0.37%     99.63% # Reads before turning the bus around for writes
system.mem_ctrls.rdPerTurnAround::6144-8191            3      0.08%     99.71% # Reads before turning the bus around for writes
system.mem_ctrls.rdPerTurnAround::8192-10239            2      0.05%     99.76% # Reads before turning the bus around for writes
system.mem_ctrls.rdPerTurnAround::10240-12287            7      0.19%     99.95% # Reads before turning the bus around for writes
system.mem_ctrls.rdPerTurnAround::16384-18431            1      0.03%     99.97% # Reads before turning the bus around for writes
system.mem_ctrls.rdPerTurnAround::34816-36863            1      0.03%    100.00% # Reads before turning the bus around for writes
system.mem_ctrls.rdPerTurnAround::total          3765                       # Reads before turning the bus around for writes
system.mem_ctrls.wrPerTurnAround::samples         3765                       # Writes before turning the bus around for reads
system.mem_ctrls.wrPerTurnAround::mean      16.320053                       # Writes before turning the bus around for reads
system.mem_ctrls.wrPerTurnAround::gmean     16.301107                       # Writes before turning the bus around for reads
system.mem_ctrls.wrPerTurnAround::stdev      0.840863                       # Writes before turning the bus around for reads
system.mem_ctrls.wrPerTurnAround::16             3188     84.67%     84.67% # Writes before turning the bus around for reads
system.mem_ctrls.wrPerTurnAround::17               26      0.69%     85.37% # Writes before turning the bus around for reads
system.mem_ctrls.wrPerTurnAround::18              513     13.63%     98.99% # Writes before turning the bus around for reads
system.mem_ctrls.wrPerTurnAround::19               31      0.82%     99.81% # Writes before turning the bus around for reads
system.mem_ctrls.wrPerTurnAround::20                3      0.08%     99.89% # Writes before turning the bus around for reads
system.mem_ctrls.wrPerTurnAround::25                1      0.03%     99.92% # Writes before turning the bus around for reads
system.mem_ctrls.wrPerTurnAround::26                2      0.05%     99.97% # Writes before turning the bus around for reads
system.mem_ctrls.wrPerTurnAround::35                1      0.03%    100.00% # Writes before turning the bus around for reads
system.mem_ctrls.wrPerTurnAround::total          3765                       # Writes before turning the bus around for reads
system.mem_ctrls.totQLat                  11586425348                       # Total ticks spent queuing
system.mem_ctrls.totMemAccLat             18709569098                       # Total ticks spent from burst creation until serviced by the DRAM
system.mem_ctrls.totBusLat                 1899505000                       # Total ticks spent in databus transfers
system.mem_ctrls.avgQLat                     30498.54                       # Average queueing delay per DRAM burst
system.mem_ctrls.avgBusLat                    5000.00                       # Average bus latency per DRAM burst
system.mem_ctrls.avgMemAccLat                49248.54                       # Average memory access latency per DRAM burst
system.mem_ctrls.avgRdBW                       533.63                       # Average DRAM read bandwidth in MiByte/s
system.mem_ctrls.avgWrBW                        86.31                       # Average achieved write bandwidth in MiByte/s
system.mem_ctrls.avgRdBWSys                    597.72                       # Average system read bandwidth in MiByte/s
system.mem_ctrls.avgWrBWSys                    147.77                       # Average system write bandwidth in MiByte/s
system.mem_ctrls.peakBW                      12800.00                       # Theoretical peak bandwidth in MiByte/s
system.mem_ctrls.busUtil                         4.84                       # Data bus utilization in percentage
system.mem_ctrls.busUtilRead                     4.17                       # Data bus utilization in percentage for reads
system.mem_ctrls.busUtilWrite                    0.67                       # Data bus utilization in percentage for writes
system.mem_ctrls.avgRdQLen                       2.17                       # Average read queue length when enqueuing
system.mem_ctrls.avgWrQLen                      25.30                       # Average write queue length when enqueuing
system.mem_ctrls.readRowHits                   317599                       # Number of row buffer hits during reads
system.mem_ctrls.writeRowHits                   55965                       # Number of row buffer hits during writes
system.mem_ctrls.readRowHitRate                 83.60                       # Row buffer hit rate for reads
system.mem_ctrls.writeRowHitRate                91.05                       # Row buffer hit rate for writes
system.mem_ctrls.avgGap                     171697.57                       # Average gap between requests
system.mem_ctrls.pageHitRate                    84.64                       # Row buffer hit rate, read and write combined
system.mem_ctrls_0.actEnergy                154851480                       # Energy for activate commands per rank (pJ)
system.mem_ctrls_0.preEnergy                 84492375                       # Energy for precharge commands per rank (pJ)
system.mem_ctrls_0.readEnergy               864528600                       # Energy for read commands per rank (pJ)
system.mem_ctrls_0.writeEnergy              203627520                       # Energy for write commands per rank (pJ)
system.mem_ctrls_0.refreshEnergy           2975584560                       # Energy for refresh commands per rank (pJ)
system.mem_ctrls_0.actBackEnergy          23407213590                       # Energy for active background per rank (pJ)
system.mem_ctrls_0.preBackEnergy           6801921750                       # Energy for precharge background per rank (pJ)
system.mem_ctrls_0.totalEnergy            34492219875                       # Total energy per rank (pJ)
system.mem_ctrls_0.averagePower            757.112167                       # Core power per rank (mW)
system.mem_ctrls_0.memoryStateTime::IDLE  11164309000                       # Time in different power states
system.mem_ctrls_0.memoryStateTime::REF    1521260000                       # Time in different power states
system.mem_ctrls_0.memoryStateTime::PRE_PDN            0                       # Time in different power states
system.mem_ctrls_0.memoryStateTime::ACT   32872183000                       # Time in different power states
system.mem_ctrls_0.memoryStateTime::ACT_PDN            0                       # Time in different power states
system.mem_ctrls_1.actEnergy                357368760                       # Energy for activate commands per rank (pJ)
system.mem_ctrls_1.preEnergy                194992875                       # Energy for precharge commands per rank (pJ)
system.mem_ctrls_1.readEnergy              2098122000                       # Energy for read commands per rank (pJ)
system.mem_ctrls_1.writeEnergy              194082480                       # Energy for write commands per rank (pJ)
system.mem_ctrls_1.refreshEnergy           2975584560                       # Energy for refresh commands per rank (pJ)
system.mem_ctrls_1.actBackEnergy          25328097630                       # Energy for active background per rank (pJ)
system.mem_ctrls_1.preBackEnergy           5116935750                       # Energy for precharge background per rank (pJ)
system.mem_ctrls_1.totalEnergy            36265184055                       # Total energy per rank (pJ)
system.mem_ctrls_1.averagePower            796.029139                       # Core power per rank (mW)
system.mem_ctrls_1.memoryStateTime::IDLE   8320566250                       # Time in different power states
system.mem_ctrls_1.memoryStateTime::REF    1521260000                       # Time in different power states
system.mem_ctrls_1.memoryStateTime::PRE_PDN            0                       # Time in different power states
system.mem_ctrls_1.memoryStateTime::ACT   35715796250                       # Time in different power states
system.mem_ctrls_1.memoryStateTime::ACT_PDN            0                       # Time in different power states
system.ruby_clk_domain.clock                      500                       # Clock period in ticks
system.ruby.phys_mem.bytes_read::cpu0.inst    197969856                       # Number of bytes read from this memory
system.ruby.phys_mem.bytes_read::cpu0.data     27235256                       # Number of bytes read from this memory
system.ruby.phys_mem.bytes_read::gpu.ce       1163612                       # Number of bytes read from this memory
system.ruby.phys_mem.bytes_read::gpu.shader_cores0.data       573184                       # Number of bytes read from this memory
system.ruby.phys_mem.bytes_read::gpu.shader_cores0.inst          192                       # Number of bytes read from this memory
system.ruby.phys_mem.bytes_read::gpu.shader_cores1.data       551968                       # Number of bytes read from this memory
system.ruby.phys_mem.bytes_read::gpu.shader_cores1.inst          192                       # Number of bytes read from this memory
system.ruby.phys_mem.bytes_read::gpu.shader_cores2.data       559040                       # Number of bytes read from this memory
system.ruby.phys_mem.bytes_read::gpu.shader_cores2.inst          192                       # Number of bytes read from this memory
system.ruby.phys_mem.bytes_read::gpu.shader_cores3.data       552864                       # Number of bytes read from this memory
system.ruby.phys_mem.bytes_read::gpu.shader_cores3.inst          208                       # Number of bytes read from this memory
system.ruby.phys_mem.bytes_read::total      228606564                       # Number of bytes read from this memory
system.ruby.phys_mem.bytes_inst_read::cpu0.inst    197969856                       # Number of instructions bytes read from this memory
system.ruby.phys_mem.bytes_inst_read::gpu.shader_cores0.inst          192                       # Number of instructions bytes read from this memory
system.ruby.phys_mem.bytes_inst_read::gpu.shader_cores1.inst          192                       # Number of instructions bytes read from this memory
system.ruby.phys_mem.bytes_inst_read::gpu.shader_cores2.inst          192                       # Number of instructions bytes read from this memory
system.ruby.phys_mem.bytes_inst_read::gpu.shader_cores3.inst          208                       # Number of instructions bytes read from this memory
system.ruby.phys_mem.bytes_inst_read::total    197970640                       # Number of instructions bytes read from this memory
system.ruby.phys_mem.bytes_written::cpu0.data     18711631                       # Number of bytes written to this memory
system.ruby.phys_mem.bytes_written::gpu.ce      1163612                       # Number of bytes written to this memory
system.ruby.phys_mem.bytes_written::gpu.shader_cores0.data       139264                       # Number of bytes written to this memory
system.ruby.phys_mem.bytes_written::gpu.shader_cores1.data       133120                       # Number of bytes written to this memory
system.ruby.phys_mem.bytes_written::gpu.shader_cores2.data       135168                       # Number of bytes written to this memory
system.ruby.phys_mem.bytes_written::gpu.shader_cores3.data       133248                       # Number of bytes written to this memory
system.ruby.phys_mem.bytes_written::total     20416043                       # Number of bytes written to this memory
system.ruby.phys_mem.num_reads::cpu0.inst     24746232                       # Number of read requests responded to by this memory
system.ruby.phys_mem.num_reads::cpu0.data      4360884                       # Number of read requests responded to by this memory
system.ruby.phys_mem.num_reads::gpu.ce           9096                       # Number of read requests responded to by this memory
system.ruby.phys_mem.num_reads::gpu.shader_cores0.data         6922                       # Number of read requests responded to by this memory
system.ruby.phys_mem.num_reads::gpu.shader_cores0.inst           12                       # Number of read requests responded to by this memory
system.ruby.phys_mem.num_reads::gpu.shader_cores1.data         6664                       # Number of read requests responded to by this memory
system.ruby.phys_mem.num_reads::gpu.shader_cores1.inst           12                       # Number of read requests responded to by this memory
system.ruby.phys_mem.num_reads::gpu.shader_cores2.data         6752                       # Number of read requests responded to by this memory
system.ruby.phys_mem.num_reads::gpu.shader_cores2.inst           12                       # Number of read requests responded to by this memory
system.ruby.phys_mem.num_reads::gpu.shader_cores3.data         6675                       # Number of read requests responded to by this memory
system.ruby.phys_mem.num_reads::gpu.shader_cores3.inst           13                       # Number of read requests responded to by this memory
system.ruby.phys_mem.num_reads::total        29143274                       # Number of read requests responded to by this memory
system.ruby.phys_mem.num_writes::cpu0.data      2977570                       # Number of write requests responded to by this memory
system.ruby.phys_mem.num_writes::gpu.ce          9095                       # Number of write requests responded to by this memory
system.ruby.phys_mem.num_writes::gpu.shader_cores0.data         3610                       # Number of write requests responded to by this memory
system.ruby.phys_mem.num_writes::gpu.shader_cores1.data         3478                       # Number of write requests responded to by this memory
system.ruby.phys_mem.num_writes::gpu.shader_cores2.data         3522                       # Number of write requests responded to by this memory
system.ruby.phys_mem.num_writes::gpu.shader_cores3.data         3472                       # Number of write requests responded to by this memory
system.ruby.phys_mem.num_writes::total        3000747                       # Number of write requests responded to by this memory
system.ruby.phys_mem.bw_read::cpu0.inst    4344990142                       # Total read bandwidth from this memory (bytes/s)
system.ruby.phys_mem.bw_read::cpu0.data     597752209                       # Total read bandwidth from this memory (bytes/s)
system.ruby.phys_mem.bw_read::gpu.ce         25538649                       # Total read bandwidth from this memory (bytes/s)
system.ruby.phys_mem.bw_read::gpu.shader_cores0.data     12580091                       # Total read bandwidth from this memory (bytes/s)
system.ruby.phys_mem.bw_read::gpu.shader_cores0.inst         4214                       # Total read bandwidth from this memory (bytes/s)
system.ruby.phys_mem.bw_read::gpu.shader_cores1.data     12114448                       # Total read bandwidth from this memory (bytes/s)
system.ruby.phys_mem.bw_read::gpu.shader_cores1.inst         4214                       # Total read bandwidth from this memory (bytes/s)
system.ruby.phys_mem.bw_read::gpu.shader_cores2.data     12269662                       # Total read bandwidth from this memory (bytes/s)
system.ruby.phys_mem.bw_read::gpu.shader_cores2.inst         4214                       # Total read bandwidth from this memory (bytes/s)
system.ruby.phys_mem.bw_read::gpu.shader_cores3.data     12134113                       # Total read bandwidth from this memory (bytes/s)
system.ruby.phys_mem.bw_read::gpu.shader_cores3.inst         4565                       # Total read bandwidth from this memory (bytes/s)
system.ruby.phys_mem.bw_read::total        5017396522                       # Total read bandwidth from this memory (bytes/s)
system.ruby.phys_mem.bw_inst_read::cpu0.inst   4344990142                       # Instruction read bandwidth from this memory (bytes/s)
system.ruby.phys_mem.bw_inst_read::gpu.shader_cores0.inst         4214                       # Instruction read bandwidth from this memory (bytes/s)
system.ruby.phys_mem.bw_inst_read::gpu.shader_cores1.inst         4214                       # Instruction read bandwidth from this memory (bytes/s)
system.ruby.phys_mem.bw_inst_read::gpu.shader_cores2.inst         4214                       # Instruction read bandwidth from this memory (bytes/s)
system.ruby.phys_mem.bw_inst_read::gpu.shader_cores3.inst         4565                       # Instruction read bandwidth from this memory (bytes/s)
system.ruby.phys_mem.bw_inst_read::total   4345007349                       # Instruction read bandwidth from this memory (bytes/s)
system.ruby.phys_mem.bw_write::cpu0.data    410677938                       # Write bandwidth from this memory (bytes/s)
system.ruby.phys_mem.bw_write::gpu.ce        25538649                       # Write bandwidth from this memory (bytes/s)
system.ruby.phys_mem.bw_write::gpu.shader_cores0.data      3056530                       # Write bandwidth from this memory (bytes/s)
system.ruby.phys_mem.bw_write::gpu.shader_cores1.data      2921683                       # Write bandwidth from this memory (bytes/s)
system.ruby.phys_mem.bw_write::gpu.shader_cores2.data      2966632                       # Write bandwidth from this memory (bytes/s)
system.ruby.phys_mem.bw_write::gpu.shader_cores3.data      2924492                       # Write bandwidth from this memory (bytes/s)
system.ruby.phys_mem.bw_write::total        448085923                       # Write bandwidth from this memory (bytes/s)
system.ruby.phys_mem.bw_total::cpu0.inst   4344990142                       # Total bandwidth to/from this memory (bytes/s)
system.ruby.phys_mem.bw_total::cpu0.data   1008430147                       # Total bandwidth to/from this memory (bytes/s)
system.ruby.phys_mem.bw_total::gpu.ce        51077298                       # Total bandwidth to/from this memory (bytes/s)
system.ruby.phys_mem.bw_total::gpu.shader_cores0.data     15636621                       # Total bandwidth to/from this memory (bytes/s)
system.ruby.phys_mem.bw_total::gpu.shader_cores0.inst         4214                       # Total bandwidth to/from this memory (bytes/s)
system.ruby.phys_mem.bw_total::gpu.shader_cores1.data     15036131                       # Total bandwidth to/from this memory (bytes/s)
system.ruby.phys_mem.bw_total::gpu.shader_cores1.inst         4214                       # Total bandwidth to/from this memory (bytes/s)
system.ruby.phys_mem.bw_total::gpu.shader_cores2.data     15236294                       # Total bandwidth to/from this memory (bytes/s)
system.ruby.phys_mem.bw_total::gpu.shader_cores2.inst         4214                       # Total bandwidth to/from this memory (bytes/s)
system.ruby.phys_mem.bw_total::gpu.shader_cores3.data     15058605                       # Total bandwidth to/from this memory (bytes/s)
system.ruby.phys_mem.bw_total::gpu.shader_cores3.inst         4565                       # Total bandwidth to/from this memory (bytes/s)
system.ruby.phys_mem.bw_total::total       5465482444                       # Total bandwidth to/from this memory (bytes/s)
system.cpu_voltage_domain.voltage                   1                       # Voltage in Volts
system.cpu_clk_domain.clock                       500                       # Clock period in ticks
system.cpu0.apic_clk_domain.clock                8000                       # Clock period in ticks
system.cpu0.workload.num_syscalls                  58                       # Number of system calls
system.cpu0.numCycles                        91125572                       # number of cpu cycles simulated
system.cpu0.numWorkItemsStarted                     1                       # number of work items this cpu started
system.cpu0.numWorkItemsCompleted                   1                       # number of work items this cpu completed
system.cpu0.committedInsts                   18562921                       # Number of instructions committed
system.cpu0.committedOps                     36244844                       # Number of ops (including micro ops) committed
system.cpu0.num_int_alu_accesses             35643189                       # Number of integer alu accesses
system.cpu0.num_fp_alu_accesses               1011858                       # Number of float alu accesses
system.cpu0.num_func_calls                     866427                       # number of times a function call or return occured
system.cpu0.num_conditional_control_insts      3177416                       # number of instructions that are conditional controls
system.cpu0.num_int_insts                    35643189                       # number of integer instructions
system.cpu0.num_fp_insts                      1011858                       # number of float instructions
system.cpu0.num_int_register_reads           67326970                       # number of times the integer registers were read
system.cpu0.num_int_register_writes          28152331                       # number of times the integer registers were written
system.cpu0.num_fp_register_reads             1431115                       # number of times the floating registers were read
system.cpu0.num_fp_register_writes             723165                       # number of times the floating registers were written
system.cpu0.num_cc_register_reads            22059998                       # number of times the CC registers were read
system.cpu0.num_cc_register_writes           12223463                       # number of times the CC registers were written
system.cpu0.num_mem_refs                      7338317                       # number of memory refs
system.cpu0.num_load_insts                    4360748                       # Number of load instructions
system.cpu0.num_store_insts                   2977569                       # Number of store instructions
system.cpu0.num_idle_cycles              977260.663979                       # Number of idle cycles
system.cpu0.num_busy_cycles              90148311.336021                       # Number of busy cycles
system.cpu0.not_idle_fraction                0.989276                       # Percentage of non-idle cycles
system.cpu0.idle_fraction                    0.010724                       # Percentage of idle cycles
system.cpu0.Branches                          4379377                       # Number of branches fetched
system.cpu0.op_class::No_OpClass               110858      0.31%      0.31% # Class of executed instruction
system.cpu0.op_class::IntAlu                 28163705     77.70%     78.01% # Class of executed instruction
system.cpu0.op_class::IntMult                   54917      0.15%     78.16% # Class of executed instruction
system.cpu0.op_class::IntDiv                      686      0.00%     78.16% # Class of executed instruction
system.cpu0.op_class::FloatAdd                 576361      1.59%     79.75% # Class of executed instruction
system.cpu0.op_class::FloatCmp                      0      0.00%     79.75% # Class of executed instruction
system.cpu0.op_class::FloatCvt                      0      0.00%     79.75% # Class of executed instruction
system.cpu0.op_class::FloatMult                     0      0.00%     79.75% # Class of executed instruction
system.cpu0.op_class::FloatDiv                      0      0.00%     79.75% # Class of executed instruction
system.cpu0.op_class::FloatSqrt                     0      0.00%     79.75% # Class of executed instruction
system.cpu0.op_class::SimdAdd                       0      0.00%     79.75% # Class of executed instruction
system.cpu0.op_class::SimdAddAcc                    0      0.00%     79.75% # Class of executed instruction
system.cpu0.op_class::SimdAlu                       0      0.00%     79.75% # Class of executed instruction
system.cpu0.op_class::SimdCmp                       0      0.00%     79.75% # Class of executed instruction
system.cpu0.op_class::SimdCvt                       0      0.00%     79.75% # Class of executed instruction
system.cpu0.op_class::SimdMisc                      0      0.00%     79.75% # Class of executed instruction
system.cpu0.op_class::SimdMult                      0      0.00%     79.75% # Class of executed instruction
system.cpu0.op_class::SimdMultAcc                   0      0.00%     79.75% # Class of executed instruction
system.cpu0.op_class::SimdShift                     0      0.00%     79.75% # Class of executed instruction
system.cpu0.op_class::SimdShiftAcc                  0      0.00%     79.75% # Class of executed instruction
system.cpu0.op_class::SimdSqrt                      0      0.00%     79.75% # Class of executed instruction
system.cpu0.op_class::SimdFloatAdd                  0      0.00%     79.75% # Class of executed instruction
system.cpu0.op_class::SimdFloatAlu                  0      0.00%     79.75% # Class of executed instruction
system.cpu0.op_class::SimdFloatCmp                  0      0.00%     79.75% # Class of executed instruction
system.cpu0.op_class::SimdFloatCvt                  0      0.00%     79.75% # Class of executed instruction
system.cpu0.op_class::SimdFloatDiv                  0      0.00%     79.75% # Class of executed instruction
system.cpu0.op_class::SimdFloatMisc                 0      0.00%     79.75% # Class of executed instruction
system.cpu0.op_class::SimdFloatMult                 0      0.00%     79.75% # Class of executed instruction
system.cpu0.op_class::SimdFloatMultAcc              0      0.00%     79.75% # Class of executed instruction
system.cpu0.op_class::SimdFloatSqrt                 0      0.00%     79.75% # Class of executed instruction
system.cpu0.op_class::MemRead                 4360748     12.03%     91.78% # Class of executed instruction
system.cpu0.op_class::MemWrite                2977569      8.22%    100.00% # Class of executed instruction
system.cpu0.op_class::IprAccess                     0      0.00%    100.00% # Class of executed instruction
system.cpu0.op_class::InstPrefetch                  0      0.00%    100.00% # Class of executed instruction
system.cpu0.op_class::total                  36244844                       # Class of executed instruction
system.cpu1.apic_clk_domain.clock                8000                       # Clock period in ticks
system.cpu1.numCycles                               0                       # number of cpu cycles simulated
system.cpu1.numWorkItemsStarted                     0                       # number of work items this cpu started
system.cpu1.numWorkItemsCompleted                   0                       # number of work items this cpu completed
system.cpu1.committedInsts                          0                       # Number of instructions committed
system.cpu1.committedOps                            0                       # Number of ops (including micro ops) committed
system.cpu1.num_int_alu_accesses                    0                       # Number of integer alu accesses
system.cpu1.num_fp_alu_accesses                     0                       # Number of float alu accesses
system.cpu1.num_func_calls                          0                       # number of times a function call or return occured
system.cpu1.num_conditional_control_insts            0                       # number of instructions that are conditional controls
system.cpu1.num_int_insts                           0                       # number of integer instructions
system.cpu1.num_fp_insts                            0                       # number of float instructions
system.cpu1.num_int_register_reads                  0                       # number of times the integer registers were read
system.cpu1.num_int_register_writes                 0                       # number of times the integer registers were written
system.cpu1.num_fp_register_reads                   0                       # number of times the floating registers were read
system.cpu1.num_fp_register_writes                  0                       # number of times the floating registers were written
system.cpu1.num_mem_refs                            0                       # number of memory refs
system.cpu1.num_load_insts                          0                       # Number of load instructions
system.cpu1.num_store_insts                         0                       # Number of store instructions
system.cpu1.num_idle_cycles                         0                       # Number of idle cycles
system.cpu1.num_busy_cycles                         0                       # Number of busy cycles
system.cpu1.not_idle_fraction                       0                       # Percentage of non-idle cycles
system.cpu1.idle_fraction                           1                       # Percentage of idle cycles
system.cpu1.op_class::No_OpClass                    0                       # Class of executed instruction
system.cpu1.op_class::IntAlu                        0                       # Class of executed instruction
system.cpu1.op_class::IntMult                       0                       # Class of executed instruction
system.cpu1.op_class::IntDiv                        0                       # Class of executed instruction
system.cpu1.op_class::FloatAdd                      0                       # Class of executed instruction
system.cpu1.op_class::FloatCmp                      0                       # Class of executed instruction
system.cpu1.op_class::FloatCvt                      0                       # Class of executed instruction
system.cpu1.op_class::FloatMult                     0                       # Class of executed instruction
system.cpu1.op_class::FloatDiv                      0                       # Class of executed instruction
system.cpu1.op_class::FloatSqrt                     0                       # Class of executed instruction
system.cpu1.op_class::SimdAdd                       0                       # Class of executed instruction
system.cpu1.op_class::SimdAddAcc                    0                       # Class of executed instruction
system.cpu1.op_class::SimdAlu                       0                       # Class of executed instruction
system.cpu1.op_class::SimdCmp                       0                       # Class of executed instruction
system.cpu1.op_class::SimdCvt                       0                       # Class of executed instruction
system.cpu1.op_class::SimdMisc                      0                       # Class of executed instruction
system.cpu1.op_class::SimdMult                      0                       # Class of executed instruction
system.cpu1.op_class::SimdMultAcc                   0                       # Class of executed instruction
system.cpu1.op_class::SimdShift                     0                       # Class of executed instruction
system.cpu1.op_class::SimdShiftAcc                  0                       # Class of executed instruction
system.cpu1.op_class::SimdSqrt                      0                       # Class of executed instruction
system.cpu1.op_class::SimdFloatAdd                  0                       # Class of executed instruction
system.cpu1.op_class::SimdFloatAlu                  0                       # Class of executed instruction
system.cpu1.op_class::SimdFloatCmp                  0                       # Class of executed instruction
system.cpu1.op_class::SimdFloatCvt                  0                       # Class of executed instruction
system.cpu1.op_class::SimdFloatDiv                  0                       # Class of executed instruction
system.cpu1.op_class::SimdFloatMisc                 0                       # Class of executed instruction
system.cpu1.op_class::SimdFloatMult                 0                       # Class of executed instruction
system.cpu1.op_class::SimdFloatMultAcc              0                       # Class of executed instruction
system.cpu1.op_class::SimdFloatSqrt                 0                       # Class of executed instruction
system.cpu1.op_class::MemRead                       0                       # Class of executed instruction
system.cpu1.op_class::MemWrite                      0                       # Class of executed instruction
system.cpu1.op_class::IprAccess                     0                       # Class of executed instruction
system.cpu1.op_class::InstPrefetch                  0                       # Class of executed instruction
system.cpu1.op_class::total                         0                       # Class of executed instruction
system.gpu.clk_domain.voltage_domain.voltage            1                       # Voltage in Volts
system.gpu.clk_domain.clock                      1429                       # Clock period in ticks
system.gpu.dram_wrapper.clk_domain.clock          541                       # Clock period in ticks
system.gpu.icnt_wrapper.clk_domain.clock         2858                       # Clock period in ticks
system.ruby.delayHist::bucket_size                256                       # delay histogram for all message
system.ruby.delayHist::max_bucket                2559                       # delay histogram for all message
system.ruby.delayHist::samples                1535149                       # delay histogram for all message
system.ruby.delayHist::mean                  1.440953                       # delay histogram for all message
system.ruby.delayHist::stdev                18.227361                       # delay histogram for all message
system.ruby.delayHist                    |     1534045     99.93%     99.93% |         654      0.04%     99.97% |         250      0.02%     99.99% |          80      0.01%     99.99% |          65      0.00%    100.00% |          50      0.00%    100.00% |           5      0.00%    100.00% |           0      0.00%    100.00% |           0      0.00%    100.00% |           0      0.00%    100.00% # delay histogram for all message
system.ruby.delayHist::total                  1535149                       # delay histogram for all message
system.ruby.outstanding_req_hist::bucket_size            8                      
system.ruby.outstanding_req_hist::max_bucket           79                      
system.ruby.outstanding_req_hist::samples     32144021                      
system.ruby.outstanding_req_hist::mean       1.051194                      
system.ruby.outstanding_req_hist::gmean      1.004961                      
system.ruby.outstanding_req_hist::stdev      1.610077                      
system.ruby.outstanding_req_hist         |    32102380     99.87%     99.87% |        8069      0.03%     99.90% |        7261      0.02%     99.92% |        4154      0.01%     99.93% |        2382      0.01%     99.94% |        1755      0.01%     99.94% |         230      0.00%     99.94% |          90      0.00%     99.94% |       17700      0.06%    100.00% |           0      0.00%    100.00%
system.ruby.outstanding_req_hist::total      32144021                      
system.ruby.latency_hist::bucket_size            2048                      
system.ruby.latency_hist::max_bucket            20479                      
system.ruby.latency_hist::samples            32144021                      
system.ruby.latency_hist::mean               4.188858                      
system.ruby.latency_hist::gmean              1.039922                      
system.ruby.latency_hist::stdev             95.900487                      
system.ruby.latency_hist                 |    32125440     99.94%     99.94% |       12347      0.04%     99.98% |        5354      0.02%    100.00% |         802      0.00%    100.00% |          51      0.00%    100.00% |          22      0.00%    100.00% |           5      0.00%    100.00% |           0      0.00%    100.00% |           0      0.00%    100.00% |           0      0.00%    100.00%
system.ruby.latency_hist::total              32144021                      
system.ruby.hit_latency_hist::bucket_size            1                      
system.ruby.hit_latency_hist::max_bucket            9                      
system.ruby.hit_latency_hist::samples        31879115                      
system.ruby.hit_latency_hist::mean                  1                      
system.ruby.hit_latency_hist::gmean                 1                      
system.ruby.hit_latency_hist             |           0      0.00%      0.00% |    31879115    100.00%    100.00% |           0      0.00%    100.00% |           0      0.00%    100.00% |           0      0.00%    100.00% |           0      0.00%    100.00% |           0      0.00%    100.00% |           0      0.00%    100.00% |           0      0.00%    100.00% |           0      0.00%    100.00%
system.ruby.hit_latency_hist::total          31879115                      
system.ruby.miss_latency_hist::bucket_size         2048                      
system.ruby.miss_latency_hist::max_bucket        20479                      
system.ruby.miss_latency_hist::samples         264906                      
system.ruby.miss_latency_hist::mean        387.939994                      
system.ruby.miss_latency_hist::gmean       115.583400                      
system.ruby.miss_latency_hist::stdev       983.604882                      
system.ruby.miss_latency_hist            |      246325     92.99%     92.99% |       12347      4.66%     97.65% |        5354      2.02%     99.67% |         802      0.30%     99.97% |          51      0.02%     99.99% |          22      0.01%    100.00% |           5      0.00%    100.00% |           0      0.00%    100.00% |           0      0.00%    100.00% |           0      0.00%    100.00%
system.ruby.miss_latency_hist::total           264906                      
system.gpu.shader_mmu.numPagefaults                 0                       # Number of Pagefaults
system.gpu.shader_mmu.numPagewalks               2867                       # Number of Pagewalks
system.gpu.shader_mmu.totalRequests              2867                       # Total number of requests
system.gpu.shader_mmu.l2hits                        0                       # Hits in the shared L2
system.gpu.shader_mmu.prefetchHits                  0                       # Number of prefetch hits
system.gpu.shader_mmu.numPrefetches                 0                       # Number of prefetchs
system.gpu.shader_mmu.prefetchFaults                0                       # Number of faults caused by prefetches
system.gpu.shader_mmu.pagefaultLatency::samples            0                       # Latency to complete the pagefault
system.gpu.shader_mmu.pagefaultLatency::mean          nan                       # Latency to complete the pagefault
system.gpu.shader_mmu.pagefaultLatency::gmean          nan                       # Latency to complete the pagefault
system.gpu.shader_mmu.pagefaultLatency::stdev          nan                       # Latency to complete the pagefault
system.gpu.shader_mmu.pagefaultLatency::0            0                       # Latency to complete the pagefault
system.gpu.shader_mmu.pagefaultLatency::1            0                       # Latency to complete the pagefault
system.gpu.shader_mmu.pagefaultLatency::2            0                       # Latency to complete the pagefault
system.gpu.shader_mmu.pagefaultLatency::3            0                       # Latency to complete the pagefault
system.gpu.shader_mmu.pagefaultLatency::4            0                       # Latency to complete the pagefault
system.gpu.shader_mmu.pagefaultLatency::5            0                       # Latency to complete the pagefault
system.gpu.shader_mmu.pagefaultLatency::6            0                       # Latency to complete the pagefault
system.gpu.shader_mmu.pagefaultLatency::7            0                       # Latency to complete the pagefault
system.gpu.shader_mmu.pagefaultLatency::8            0                       # Latency to complete the pagefault
system.gpu.shader_mmu.pagefaultLatency::9            0                       # Latency to complete the pagefault
system.gpu.shader_mmu.pagefaultLatency::10            0                       # Latency to complete the pagefault
system.gpu.shader_mmu.pagefaultLatency::11            0                       # Latency to complete the pagefault
system.gpu.shader_mmu.pagefaultLatency::12            0                       # Latency to complete the pagefault
system.gpu.shader_mmu.pagefaultLatency::13            0                       # Latency to complete the pagefault
system.gpu.shader_mmu.pagefaultLatency::14            0                       # Latency to complete the pagefault
system.gpu.shader_mmu.pagefaultLatency::15            0                       # Latency to complete the pagefault
system.gpu.shader_mmu.pagefaultLatency::16            0                       # Latency to complete the pagefault
system.gpu.shader_mmu.pagefaultLatency::17            0                       # Latency to complete the pagefault
system.gpu.shader_mmu.pagefaultLatency::18            0                       # Latency to complete the pagefault
system.gpu.shader_mmu.pagefaultLatency::19            0                       # Latency to complete the pagefault
system.gpu.shader_mmu.pagefaultLatency::20            0                       # Latency to complete the pagefault
system.gpu.shader_mmu.pagefaultLatency::21            0                       # Latency to complete the pagefault
system.gpu.shader_mmu.pagefaultLatency::22            0                       # Latency to complete the pagefault
system.gpu.shader_mmu.pagefaultLatency::23            0                       # Latency to complete the pagefault
system.gpu.shader_mmu.pagefaultLatency::24            0                       # Latency to complete the pagefault
system.gpu.shader_mmu.pagefaultLatency::25            0                       # Latency to complete the pagefault
system.gpu.shader_mmu.pagefaultLatency::26            0                       # Latency to complete the pagefault
system.gpu.shader_mmu.pagefaultLatency::27            0                       # Latency to complete the pagefault
system.gpu.shader_mmu.pagefaultLatency::28            0                       # Latency to complete the pagefault
system.gpu.shader_mmu.pagefaultLatency::29            0                       # Latency to complete the pagefault
system.gpu.shader_mmu.pagefaultLatency::30            0                       # Latency to complete the pagefault
system.gpu.shader_mmu.pagefaultLatency::31            0                       # Latency to complete the pagefault
system.gpu.shader_mmu.pagefaultLatency::total            0                       # Latency to complete the pagefault
system.gpu.shader_mmu.concurrentWalks::samples         2867                       # Number of outstanding walks
system.gpu.shader_mmu.concurrentWalks::mean            0                       # Number of outstanding walks
system.gpu.shader_mmu.concurrentWalks::gmean            0                       # Number of outstanding walks
system.gpu.shader_mmu.concurrentWalks::stdev            0                       # Number of outstanding walks
system.gpu.shader_mmu.concurrentWalks::0         2867    100.00%    100.00% # Number of outstanding walks
system.gpu.shader_mmu.concurrentWalks::1            0      0.00%    100.00% # Number of outstanding walks
system.gpu.shader_mmu.concurrentWalks::2            0      0.00%    100.00% # Number of outstanding walks
system.gpu.shader_mmu.concurrentWalks::3            0      0.00%    100.00% # Number of outstanding walks
system.gpu.shader_mmu.concurrentWalks::4            0      0.00%    100.00% # Number of outstanding walks
system.gpu.shader_mmu.concurrentWalks::5            0      0.00%    100.00% # Number of outstanding walks
system.gpu.shader_mmu.concurrentWalks::6            0      0.00%    100.00% # Number of outstanding walks
system.gpu.shader_mmu.concurrentWalks::7            0      0.00%    100.00% # Number of outstanding walks
system.gpu.shader_mmu.concurrentWalks::8            0      0.00%    100.00% # Number of outstanding walks
system.gpu.shader_mmu.concurrentWalks::9            0      0.00%    100.00% # Number of outstanding walks
system.gpu.shader_mmu.concurrentWalks::10            0      0.00%    100.00% # Number of outstanding walks
system.gpu.shader_mmu.concurrentWalks::11            0      0.00%    100.00% # Number of outstanding walks
system.gpu.shader_mmu.concurrentWalks::12            0      0.00%    100.00% # Number of outstanding walks
system.gpu.shader_mmu.concurrentWalks::13            0      0.00%    100.00% # Number of outstanding walks
system.gpu.shader_mmu.concurrentWalks::14            0      0.00%    100.00% # Number of outstanding walks
system.gpu.shader_mmu.concurrentWalks::15            0      0.00%    100.00% # Number of outstanding walks
system.gpu.shader_mmu.concurrentWalks::total         2867                       # Number of outstanding walks
system.gpu.shader_mmu.pagewalkLatency::samples         2867                       # Latency to complete the pagewalk
system.gpu.shader_mmu.pagewalkLatency::mean            0                       # Latency to complete the pagewalk
system.gpu.shader_mmu.pagewalkLatency::gmean            0                       # Latency to complete the pagewalk
system.gpu.shader_mmu.pagewalkLatency::stdev            0                       # Latency to complete the pagewalk
system.gpu.shader_mmu.pagewalkLatency::0         2867    100.00%    100.00% # Latency to complete the pagewalk
system.gpu.shader_mmu.pagewalkLatency::1            0      0.00%    100.00% # Latency to complete the pagewalk
system.gpu.shader_mmu.pagewalkLatency::2            0      0.00%    100.00% # Latency to complete the pagewalk
system.gpu.shader_mmu.pagewalkLatency::3            0      0.00%    100.00% # Latency to complete the pagewalk
system.gpu.shader_mmu.pagewalkLatency::4            0      0.00%    100.00% # Latency to complete the pagewalk
system.gpu.shader_mmu.pagewalkLatency::5            0      0.00%    100.00% # Latency to complete the pagewalk
system.gpu.shader_mmu.pagewalkLatency::6            0      0.00%    100.00% # Latency to complete the pagewalk
system.gpu.shader_mmu.pagewalkLatency::7            0      0.00%    100.00% # Latency to complete the pagewalk
system.gpu.shader_mmu.pagewalkLatency::8            0      0.00%    100.00% # Latency to complete the pagewalk
system.gpu.shader_mmu.pagewalkLatency::9            0      0.00%    100.00% # Latency to complete the pagewalk
system.gpu.shader_mmu.pagewalkLatency::10            0      0.00%    100.00% # Latency to complete the pagewalk
system.gpu.shader_mmu.pagewalkLatency::11            0      0.00%    100.00% # Latency to complete the pagewalk
system.gpu.shader_mmu.pagewalkLatency::12            0      0.00%    100.00% # Latency to complete the pagewalk
system.gpu.shader_mmu.pagewalkLatency::13            0      0.00%    100.00% # Latency to complete the pagewalk
system.gpu.shader_mmu.pagewalkLatency::14            0      0.00%    100.00% # Latency to complete the pagewalk
system.gpu.shader_mmu.pagewalkLatency::15            0      0.00%    100.00% # Latency to complete the pagewalk
system.gpu.shader_mmu.pagewalkLatency::16            0      0.00%    100.00% # Latency to complete the pagewalk
system.gpu.shader_mmu.pagewalkLatency::17            0      0.00%    100.00% # Latency to complete the pagewalk
system.gpu.shader_mmu.pagewalkLatency::18            0      0.00%    100.00% # Latency to complete the pagewalk
system.gpu.shader_mmu.pagewalkLatency::19            0      0.00%    100.00% # Latency to complete the pagewalk
system.gpu.shader_mmu.pagewalkLatency::20            0      0.00%    100.00% # Latency to complete the pagewalk
system.gpu.shader_mmu.pagewalkLatency::21            0      0.00%    100.00% # Latency to complete the pagewalk
system.gpu.shader_mmu.pagewalkLatency::22            0      0.00%    100.00% # Latency to complete the pagewalk
system.gpu.shader_mmu.pagewalkLatency::23            0      0.00%    100.00% # Latency to complete the pagewalk
system.gpu.shader_mmu.pagewalkLatency::24            0      0.00%    100.00% # Latency to complete the pagewalk
system.gpu.shader_mmu.pagewalkLatency::25            0      0.00%    100.00% # Latency to complete the pagewalk
system.gpu.shader_mmu.pagewalkLatency::26            0      0.00%    100.00% # Latency to complete the pagewalk
system.gpu.shader_mmu.pagewalkLatency::27            0      0.00%    100.00% # Latency to complete the pagewalk
system.gpu.shader_mmu.pagewalkLatency::28            0      0.00%    100.00% # Latency to complete the pagewalk
system.gpu.shader_mmu.pagewalkLatency::29            0      0.00%    100.00% # Latency to complete the pagewalk
system.gpu.shader_mmu.pagewalkLatency::30            0      0.00%    100.00% # Latency to complete the pagewalk
system.gpu.shader_mmu.pagewalkLatency::31            0      0.00%    100.00% # Latency to complete the pagewalk
system.gpu.shader_mmu.pagewalkLatency::total         2867                       # Latency to complete the pagewalk
system.gpu.kernels_started                          2                       # Number of kernels started
system.gpu.kernels_completed                        2                       # Number of kernels completed
system.gpu.ce.device_dtb.hits                       0                       # Number of hits in this TLB
system.gpu.ce.device_dtb.misses                     0                       # Number of misses in this TLB
system.gpu.ce.device_dtb.hitRate                  nan                       # Hit rate for this TLB
system.gpu.ce.host_dtb.hits                      6229                       # Number of hits in this TLB
system.gpu.ce.host_dtb.misses                    2867                       # Number of misses in this TLB
system.gpu.ce.host_dtb.hitRate               0.684807                       # Hit rate for this TLB
system.gpu.ce.numOperations                         8                       # Number of copy/memset operations
system.gpu.ce.opBytesRead                     1163612                       # Number of copy bytes read
system.gpu.ce.opBytesWritten                  1163612                       # Number of copy/memset bytes written
system.gpu.ce.opTimeTicks                   430624880                       # Total time spent in copy/memset operations
system.gpu.shader_cores0.itb.hits                   0                       # Number of hits in this TLB
system.gpu.shader_cores0.itb.misses                 0                       # Number of misses in this TLB
system.gpu.shader_cores0.itb.hitRate              nan                       # Hit rate for this TLB
system.gpu.shader_cores0.local_loads                0                       # Number of loads from local space
system.gpu.shader_cores0.local_stores               0                       # Number of stores to local space
system.gpu.shader_cores0.shared_loads           64512                       # Number of loads from shared space
system.gpu.shader_cores0.shared_stores          49152                       # Number of stores to shared space
system.gpu.shader_cores0.param_kernel_loads       119296                       # Number of loads from kernel parameter space
system.gpu.shader_cores0.param_local_loads            0                       # Number of loads from local parameter space
system.gpu.shader_cores0.param_local_stores            0                       # Number of stores to local parameter space
system.gpu.shader_cores0.const_loads                0                       # Number of loads from constant space
system.gpu.shader_cores0.tex_loads                  0                       # Number of loads from texture space
system.gpu.shader_cores0.global_loads          135680                       # Number of loads from global space
system.gpu.shader_cores0.global_stores          34816                       # Number of stores to global space
system.gpu.shader_cores0.surf_loads                 0                       # Number of loads from surface space
system.gpu.shader_cores0.generic_loads              0                       # Number of loads from generic spaces (global, shared, local)
system.gpu.shader_cores0.generic_stores             0                       # Number of stores to generic spaces (global, shared, local)
system.gpu.shader_cores0.inst_cache_requests           12                       # Number of instruction cache requests sent
system.gpu.shader_cores0.inst_cache_retries            0                       # Number of instruction cache retries
system.gpu.shader_cores0.inst_counts::0             0                       # Inst counts: 1: ALU, 2: MAD, 3: CTRL, 4: SFU, 5: MEM, 6: TEX, 7: NOP
system.gpu.shader_cores0.inst_counts::1       2108416                       # Inst counts: 1: ALU, 2: MAD, 3: CTRL, 4: SFU, 5: MEM, 6: TEX, 7: NOP
system.gpu.shader_cores0.inst_counts::2         33792                       # Inst counts: 1: ALU, 2: MAD, 3: CTRL, 4: SFU, 5: MEM, 6: TEX, 7: NOP
system.gpu.shader_cores0.inst_counts::3        311808                       # Inst counts: 1: ALU, 2: MAD, 3: CTRL, 4: SFU, 5: MEM, 6: TEX, 7: NOP
system.gpu.shader_cores0.inst_counts::4         98304                       # Inst counts: 1: ALU, 2: MAD, 3: CTRL, 4: SFU, 5: MEM, 6: TEX, 7: NOP
system.gpu.shader_cores0.inst_counts::5        403456                       # Inst counts: 1: ALU, 2: MAD, 3: CTRL, 4: SFU, 5: MEM, 6: TEX, 7: NOP
system.gpu.shader_cores0.inst_counts::6             0                       # Inst counts: 1: ALU, 2: MAD, 3: CTRL, 4: SFU, 5: MEM, 6: TEX, 7: NOP
system.gpu.shader_cores0.inst_counts::7             0                       # Inst counts: 1: ALU, 2: MAD, 3: CTRL, 4: SFU, 5: MEM, 6: TEX, 7: NOP
system.gpu.shader_cores0.activeCycles          168346                       # Number of cycles this shader was executing a CTA
system.gpu.shader_cores0.notStalledCycles        74700                       # Number of cycles this shader was actually executing at least one instance
system.gpu.shader_cores0.instInstances        2955776                       # Total instructions executed by all PEs in the core
system.gpu.shader_cores0.instPerCycle       17.557744                       # Instruction instances per cycle
system.gpu.shader_cores0.kernels_completed            2                       # Number of kernels completed
system.gpu.shader_cores0.lsq.data_tlb.hits            0                       # Number of hits in this TLB
system.gpu.shader_cores0.lsq.data_tlb.misses            0                       # Number of misses in this TLB
system.gpu.shader_cores0.lsq.data_tlb.hitRate          nan                       # Hit rate for this TLB
system.gpu.shader_cores0.lsq.warpInstBufActive::samples    239048836                       # Histogram of number of active warp inst buffers at a given time
system.gpu.shader_cores0.lsq.warpInstBufActive::mean    21.014694                       # Histogram of number of active warp inst buffers at a given time
system.gpu.shader_cores0.lsq.warpInstBufActive::gmean          nan                       # Histogram of number of active warp inst buffers at a given time
system.gpu.shader_cores0.lsq.warpInstBufActive::stdev    17.527634                       # Histogram of number of active warp inst buffers at a given time
system.gpu.shader_cores0.lsq.warpInstBufActive::0     44867742     18.77%     18.77% # Histogram of number of active warp inst buffers at a given time
[...]
system.ruby.L1Cache_Controller.I.L1_Replacement::total        29346                      
system.ruby.L1Cache_Controller.S.Load    |         378      4.19%      4.19% |           0      0.00%      4.19% |        2264     25.08%     29.27% |        2161     23.94%     53.21% |        2170     24.04%     77.25% |        2054     22.75%    100.00% |           0      0.00%    100.00% |           0      0.00%    100.00%
system.ruby.L1Cache_Controller.S.Load::total         9027                      
system.ruby.L1Cache_Controller.S.Ifetch  |    24599474    100.00%    100.00% |           0      0.00%    100.00% |           0      0.00%    100.00% |           0      0.00%    100.00% |           0      0.00%    100.00% |           0      0.00%    100.00% |           0      0.00%    100.00% |           0      0.00%    100.00%
system.ruby.L1Cache_Controller.S.Ifetch::total     24599474                      
system.ruby.L1Cache_Controller.S.Store   |           2      0.54%      0.54% |           0      0.00%      0.54% |         100     26.81%     27.35% |          84     22.52%     49.87% |          99     26.54%     76.41% |          88     23.59%    100.00% |           0      0.00%    100.00% |           0      0.00%    100.00%
system.ruby.L1Cache_Controller.S.Store::total          373                      
system.ruby.L1Cache_Controller.S.Inv     |      100676     97.55%     97.55% |           0      0.00%     97.55% |         660      0.64%     98.19% |         610      0.59%     98.78% |         621      0.60%     99.38% |         641      0.62%    100.00% |           0      0.00%    100.00% |           1      0.00%    100.00%
system.ruby.L1Cache_Controller.S.Inv::total       103209                      
system.ruby.L1Cache_Controller.S.L1_Replacement |       46005     99.92%     99.92% |           0      0.00%     99.92% |           0      0.00%     99.92% |           0      0.00%     99.92% |           0      0.00%     99.92% |           0      0.00%     99.92% |           0      0.00%     99.92% |          38      0.08%    100.00%
system.ruby.L1Cache_Controller.S.L1_Replacement::total        46043                      
system.ruby.L1Cache_Controller.E.Load    |      817019     98.95%     98.95% |           0      0.00%     98.95% |        2172      0.26%     99.22% |        2131      0.26%     99.47% |        2155      0.26%     99.73% |        2194      0.27%    100.00% |           0      0.00%    100.00% |           0      0.00%    100.00%
system.ruby.L1Cache_Controller.E.Load::total       825671                      
system.ruby.L1Cache_Controller.E.Store   |        6074     67.83%     67.83% |           0      0.00%     67.83% |         747      8.34%     76.17% |         735      8.21%     84.38% |         689      7.69%     92.07% |         710      7.93%    100.00% |           0      0.00%    100.00% |           0      0.00%    100.00%
system.ruby.L1Cache_Controller.E.Store::total         8955                      
system.ruby.L1Cache_Controller.E.Inv     |       26482     81.78%     81.78% |           0      0.00%     81.78% |         945      2.92%     84.70% |         910      2.81%     87.51% |         987      3.05%     90.56% |         966      2.98%     93.54% |           0      0.00%     93.54% |        2092      6.46%    100.00%
system.ruby.L1Cache_Controller.E.Inv::total        32382                      
system.ruby.L1Cache_Controller.E.L1_Replacement |       11609     62.47%     62.47% |           0      0.00%     62.47% |           0      0.00%     62.47% |           0      0.00%     62.47% |           0      0.00%     62.47% |           0      0.00%     62.47% |           0      0.00%     62.47% |        6974     37.53%    100.00%
system.ruby.L1Cache_Controller.E.L1_Replacement::total        18583                      
system.ruby.L1Cache_Controller.E.Fwd_GETX |           1      7.14%      7.14% |           0      0.00%      7.14% |           5     35.71%     42.86% |           1      7.14%     50.00% |           2     14.29%     64.29% |           5     35.71%    100.00% |           0      0.00%    100.00% |           0      0.00%    100.00%
system.ruby.L1Cache_Controller.E.Fwd_GETX::total           14                      
system.ruby.L1Cache_Controller.E.Fwd_GETS |           5      1.37%      1.37% |           0      0.00%      1.37% |          88     24.11%     25.48% |          84     23.01%     48.49% |          88     24.11%     72.60% |         100     27.40%    100.00% |           0      0.00%    100.00% |           0      0.00%    100.00%
system.ruby.L1Cache_Controller.E.Fwd_GETS::total          365                      
system.ruby.L1Cache_Controller.M.Load    |     3254176     99.99%     99.99% |           0      0.00%     99.99% |          44      0.00%    100.00% |          48      0.00%    100.00% |          45      0.00%    100.00% |          39      0.00%    100.00% |           0      0.00%    100.00% |           0      0.00%    100.00%
system.ruby.L1Cache_Controller.M.Load::total      3254352                      
system.ruby.L1Cache_Controller.M.Store   |     3172861     99.72%     99.72% |           0      0.00%     99.72% |        2248      0.07%     99.79% |        2151      0.07%     99.86% |        2202      0.07%     99.93% |        2174      0.07%    100.00% |           0      0.00%    100.00% |           0      0.00%    100.00%
system.ruby.L1Cache_Controller.M.Store::total      3181636                      
system.ruby.L1Cache_Controller.M.Inv     |       26642     84.73%     84.73% |           0      0.00%     84.73% |        1228      3.91%     88.64% |        1193      3.79%     92.43% |        1184      3.77%     96.20% |        1153      3.67%     99.86% |           0      0.00%     99.86% |          43      0.14%    100.00%
system.ruby.L1Cache_Controller.M.Inv::total        31443                      
system.ruby.L1Cache_Controller.M.L1_Replacement |       23020     71.80%     71.80% |           0      0.00%     71.80% |           0      0.00%     71.80% |           0      0.00%     71.80% |           0      0.00%     71.80% |           0      0.00%     71.80% |           0      0.00%     71.80% |        9043     28.20%    100.00%
system.ruby.L1Cache_Controller.M.L1_Replacement::total        32063                      
system.ruby.L1Cache_Controller.M.Fwd_GETX |           2      0.42%      0.42% |           0      0.00%      0.42% |         117     24.38%     24.79% |         118     24.58%     49.38% |         120     25.00%     74.38% |         123     25.62%    100.00% |           0      0.00%    100.00% |           0      0.00%    100.00%
system.ruby.L1Cache_Controller.M.Fwd_GETX::total          480                      
system.ruby.L1Cache_Controller.M.Fwd_GETS |           2      2.44%      2.44% |           0      0.00%      2.44% |          17     20.73%     23.17% |          16     19.51%     42.68% |          16     19.51%     62.20% |          22     26.83%     89.02% |           0      0.00%     89.02% |           9     10.98%    100.00%
system.ruby.L1Cache_Controller.M.Fwd_GETS::total           82                      
system.ruby.L1Cache_Controller.IS.Inv    |           3      6.00%      6.00% |           0      0.00%      6.00% |          13     26.00%     32.00% |          11     22.00%     54.00% |          11     22.00%     76.00% |          12     24.00%    100.00% |           0      0.00%    100.00% |           0      0.00%    100.00%
system.ruby.L1Cache_Controller.IS.Inv::total           50                      
system.ruby.L1Cache_Controller.IS.L1_Replacement |           0      0.00%      0.00% |           0      0.00%      0.00% |           1      0.00%      0.00% |           0      0.00%      0.00% |           0      0.00%      0.00% |           2      0.00%      0.00% |           0      0.00%      0.00% |      130251    100.00%    100.00%
system.ruby.L1Cache_Controller.IS.L1_Replacement::total       130254                      
system.ruby.L1Cache_Controller.IS.Data_Exclusive |       44186     73.26%     73.26% |           0      0.00%     73.26% |        1785      2.96%     76.22% |        1730      2.87%     79.09% |        1766      2.93%     82.02% |        1781      2.95%     84.97% |           0      0.00%     84.97% |        9066     15.03%    100.00%
system.ruby.L1Cache_Controller.IS.Data_Exclusive::total        60314                      
system.ruby.L1Cache_Controller.IS.DataS_fromL1 |           9      2.01%      2.01% |           0      0.00%      2.01% |         107     23.94%     25.95% |         110     24.61%     50.56% |          99     22.15%     72.71% |          97     21.70%     94.41% |           0      0.00%     94.41% |          25      5.59%    100.00%
system.ruby.L1Cache_Controller.IS.DataS_fromL1::total          447                      
system.ruby.L1Cache_Controller.IS.Data_all_Acks |      146789     98.61%     98.61% |           0      0.00%     98.61% |         549      0.37%     98.98% |         485      0.33%     99.31% |         518      0.35%     99.65% |         511      0.34%    100.00% |           0      0.00%    100.00% |           5      0.00%    100.00%
system.ruby.L1Cache_Controller.IS.Data_all_Acks::total       148857                      
system.ruby.L1Cache_Controller.IM.L1_Replacement |           0      0.00%      0.00% |           0      0.00%      0.00% |           0      0.00%      0.00% |           0      0.00%      0.00% |           0      0.00%      0.00% |           0      0.00%      0.00% |           0      0.00%      0.00% |      121650    100.00%    100.00%
system.ruby.L1Cache_Controller.IM.L1_Replacement::total       121650                      
system.ruby.L1Cache_Controller.IM.Data   |           1     33.33%     33.33% |           0      0.00%     33.33% |           0      0.00%     33.33% |           0      0.00%     33.33% |           0      0.00%     33.33% |           0      0.00%     33.33% |           0      0.00%     33.33% |           2     66.67%    100.00%
system.ruby.L1Cache_Controller.IM.Data::total            3                      
system.ruby.L1Cache_Controller.IM.Data_all_Acks |       43714     79.67%     79.67% |           0      0.00%     79.67% |         520      0.95%     80.61% |         509      0.93%     81.54% |         535      0.97%     82.52% |         501      0.91%     83.43% |           0      0.00%     83.43% |        9093     16.57%    100.00%
system.ruby.L1Cache_Controller.IM.Data_all_Acks::total        54872                      
system.ruby.L1Cache_Controller.SM.Inv    |           0      0.00%      0.00% |           0      0.00%      0.00% |           5     50.00%     50.00% |           1     10.00%     60.00% |           3     30.00%     90.00% |           1     10.00%    100.00% |           0      0.00%    100.00% |           0      0.00%    100.00%
system.ruby.L1Cache_Controller.SM.Inv::total           10                      
system.ruby.L1Cache_Controller.SM.Ack    |           3      0.82%      0.82% |           0      0.00%      0.82% |          95     26.10%     26.92% |          83     22.80%     49.73% |          96     26.37%     76.10% |          87     23.90%    100.00% |           0      0.00%    100.00% |           0      0.00%    100.00%
system.ruby.L1Cache_Controller.SM.Ack::total          364                      
system.ruby.L1Cache_Controller.SM.Ack_all |           3      0.82%      0.82% |           0      0.00%      0.82% |          95     25.96%     26.78% |          83     22.68%     49.45% |          96     26.23%     75.68% |          87     23.77%     99.45% |           0      0.00%     99.45% |           2      0.55%    100.00%
system.ruby.L1Cache_Controller.SM.Ack_all::total          366                      
system.ruby.L1Cache_Controller.IS_I.Data_all_Acks |           3      6.00%      6.00% |           0      0.00%      6.00% |          13     26.00%     32.00% |          11     22.00%     54.00% |          11     22.00%     76.00% |          12     24.00%    100.00% |           0      0.00%    100.00% |           0      0.00%    100.00%
system.ruby.L1Cache_Controller.IS_I.Data_all_Acks::total           50                      
system.ruby.L1Cache_Controller.M_I.Ifetch |           1    100.00%    100.00% |           0      0.00%    100.00% |           0      0.00%    100.00% |           0      0.00%    100.00% |           0      0.00%    100.00% |           0      0.00%    100.00% |           0      0.00%    100.00% |           0      0.00%    100.00%
system.ruby.L1Cache_Controller.M_I.Ifetch::total            1                      
system.ruby.L1Cache_Controller.M_I.Inv   |           0      0.00%      0.00% |           0      0.00%      0.00% |           0      0.00%      0.00% |           0      0.00%      0.00% |           0      0.00%      0.00% |           0      0.00%      0.00% |           0      0.00%      0.00% |          18    100.00%    100.00%
system.ruby.L1Cache_Controller.M_I.Inv::total           18                      
system.ruby.L1Cache_Controller.M_I.WB_Ack |       34629     68.40%     68.40% |           0      0.00%     68.40% |           0      0.00%     68.40% |           0      0.00%     68.40% |           0      0.00%     68.40% |           0      0.00%     68.40% |           0      0.00%     68.40% |       15999     31.60%    100.00%
system.ruby.L1Cache_Controller.M_I.WB_Ack::total        50628                      
system.ruby.L1Cache_Controller.SINK_WB_ACK.WB_Ack |           0      0.00%      0.00% |           0      0.00%      0.00% |           0      0.00%      0.00% |           0      0.00%      0.00% |           0      0.00%      0.00% |           0      0.00%      0.00% |           0      0.00%      0.00% |          18    100.00%    100.00%
system.ruby.L1Cache_Controller.SINK_WB_ACK.WB_Ack::total           18                      
system.ruby.L2Cache_Controller.L1_GET_INSTR       146807      0.00%      0.00%
system.ruby.L2Cache_Controller.L1_GETS          62871      0.00%      0.00%
system.ruby.L2Cache_Controller.L1_GETX          54946      0.00%      0.00%
system.ruby.L2Cache_Controller.L1_UPGRADE          371      0.00%      0.00%
system.ruby.L2Cache_Controller.L1_PUTX          50628      0.00%      0.00%
system.ruby.L2Cache_Controller.L1_PUTX_old           21      0.00%      0.00%
system.ruby.L2Cache_Controller.L2_Replacement        21235      0.00%      0.00%
system.ruby.L2Cache_Controller.L2_Replacement_clean       193181      0.00%      0.00%
system.ruby.L2Cache_Controller.Mem_Data        212765      0.00%      0.00%
system.ruby.L2Cache_Controller.Mem_Ack         210717      0.00%      0.00%
system.ruby.L2Cache_Controller.WB_Data          31528      0.00%      0.00%
system.ruby.L2Cache_Controller.WB_Data_clean          380      0.00%      0.00%
system.ruby.L2Cache_Controller.Ack               1313      0.00%      0.00%
system.ruby.L2Cache_Controller.Ack_all         148447      0.00%      0.00%
system.ruby.L2Cache_Controller.Unblock            447      0.00%      0.00%
system.ruby.L2Cache_Controller.Exclusive_Unblock       115552      0.00%      0.00%
system.ruby.L2Cache_Controller.NP.L1_GET_INSTR       115331      0.00%      0.00%
system.ruby.L2Cache_Controller.NP.L1_GETS        50823      0.00%      0.00%
system.ruby.L2Cache_Controller.NP.L1_GETX        46611      0.00%      0.00%
system.ruby.L2Cache_Controller.NP.L1_PUTX_old           18      0.00%      0.00%
system.ruby.L2Cache_Controller.SS.L1_GET_INSTR        31443      0.00%      0.00%
system.ruby.L2Cache_Controller.SS.L1_GETS          138      0.00%      0.00%
system.ruby.L2Cache_Controller.SS.L1_GETX            3      0.00%      0.00%
system.ruby.L2Cache_Controller.SS.L1_UPGRADE          363      0.00%      0.00%
system.ruby.L2Cache_Controller.SS.L2_Replacement           41      0.00%      0.00%
system.ruby.L2Cache_Controller.SS.L2_Replacement_clean       116024      0.00%      0.00%
system.ruby.L2Cache_Controller.M.L1_GET_INSTR            5      0.00%      0.00%
system.ruby.L2Cache_Controller.M.L1_GETS        10358      0.00%      0.00%
system.ruby.L2Cache_Controller.M.L1_GETX         7767      0.00%      0.00%
system.ruby.L2Cache_Controller.M.L2_Replacement        21013      0.00%      0.00%
system.ruby.L2Cache_Controller.M.L2_Replacement_clean         9796      0.00%      0.00%
system.ruby.L2Cache_Controller.MT.L1_GETS          447      0.00%      0.00%
system.ruby.L2Cache_Controller.MT.L1_GETX          494      0.00%      0.00%
system.ruby.L2Cache_Controller.MT.L1_PUTX        50628      0.00%      0.00%
system.ruby.L2Cache_Controller.MT.L2_Replacement          181      0.00%      0.00%
system.ruby.L2Cache_Controller.MT.L2_Replacement_clean        63662      0.00%      0.00%
system.ruby.L2Cache_Controller.M_I.L1_GETX            1      0.00%      0.00%
system.ruby.L2Cache_Controller.M_I.Mem_Ack       210717      0.00%      0.00%
system.ruby.L2Cache_Controller.MT_I.WB_Data           80      0.00%      0.00%
system.ruby.L2Cache_Controller.MT_I.Ack_all          101      0.00%      0.00%
system.ruby.L2Cache_Controller.MCT_I.L1_PUTX_old            3      0.00%      0.00%
system.ruby.L2Cache_Controller.MCT_I.WB_Data        31366      0.00%      0.00%
system.ruby.L2Cache_Controller.MCT_I.WB_Data_clean           15      0.00%      0.00%
system.ruby.L2Cache_Controller.MCT_I.Ack_all        32281      0.00%      0.00%
system.ruby.L2Cache_Controller.I_I.Ack           1272      0.00%      0.00%
system.ruby.L2Cache_Controller.I_I.Ack_all       116024      0.00%      0.00%
system.ruby.L2Cache_Controller.S_I.Ack             41      0.00%      0.00%
system.ruby.L2Cache_Controller.S_I.Ack_all           41      0.00%      0.00%
system.ruby.L2Cache_Controller.ISS.L1_GETS          867      0.00%      0.00%
system.ruby.L2Cache_Controller.ISS.L1_GETX            5      0.00%      0.00%
system.ruby.L2Cache_Controller.ISS.L2_Replacement_clean         2800      0.00%      0.00%
system.ruby.L2Cache_Controller.ISS.Mem_Data        49956      0.00%      0.00%
system.ruby.L2Cache_Controller.IS.L1_GET_INSTR           28      0.00%      0.00%
system.ruby.L2Cache_Controller.IS.L1_GETS          228      0.00%      0.00%
system.ruby.L2Cache_Controller.IS.L2_Replacement_clean          219      0.00%      0.00%
system.ruby.L2Cache_Controller.IS.Mem_Data       116198      0.00%      0.00%
system.ruby.L2Cache_Controller.IM.L1_GETS            1      0.00%      0.00%
system.ruby.L2Cache_Controller.IM.L1_GETX           55      0.00%      0.00%
system.ruby.L2Cache_Controller.IM.L2_Replacement_clean          650      0.00%      0.00%
system.ruby.L2Cache_Controller.IM.Mem_Data        46611      0.00%      0.00%
system.ruby.L2Cache_Controller.SS_MB.L1_GETX            3      0.00%      0.00%
system.ruby.L2Cache_Controller.SS_MB.L1_UPGRADE            8      0.00%      0.00%
system.ruby.L2Cache_Controller.SS_MB.L2_Replacement_clean            2      0.00%      0.00%
system.ruby.L2Cache_Controller.SS_MB.Exclusive_Unblock          366      0.00%      0.00%
system.ruby.L2Cache_Controller.MT_MB.L1_GETS            9      0.00%      0.00%
system.ruby.L2Cache_Controller.MT_MB.L1_GETX            7      0.00%      0.00%
system.ruby.L2Cache_Controller.MT_MB.L2_Replacement_clean           28      0.00%      0.00%
system.ruby.L2Cache_Controller.MT_MB.Exclusive_Unblock       115186      0.00%      0.00%
system.ruby.L2Cache_Controller.MT_IIB.WB_Data            3      0.00%      0.00%
system.ruby.L2Cache_Controller.MT_IIB.WB_Data_clean           19      0.00%      0.00%
system.ruby.L2Cache_Controller.MT_IIB.Unblock          425      0.00%      0.00%
system.ruby.L2Cache_Controller.MT_IB.WB_Data           79      0.00%      0.00%
system.ruby.L2Cache_Controller.MT_IB.WB_Data_clean          346      0.00%      0.00%
system.ruby.L2Cache_Controller.MT_SB.Unblock           22      0.00%      0.00%

---------- End Simulation Statistics   ----------
