
---------- Begin Simulation Statistics ----------
sim_seconds                                  0.394342                       # Number of seconds simulated
sim_ticks                                394341561000                       # Number of ticks simulated
final_tick                               394556145500                       # Number of ticks from beginning of simulation (restored from checkpoints and never reset)
sim_freq                                 1000000000000                       # Frequency of simulated ticks
host_inst_rate                                 104983                       # Simulator instruction rate (inst/s)
host_op_rate                                   204172                       # Simulator op (including micro ops) rate (op/s)
host_tick_rate                              206891622                       # Simulator tick rate (ticks/s)
host_mem_usage                                1566472                       # Number of bytes of host memory used
host_seconds                                  1906.03                       # Real time elapsed on the host
sim_insts                                   200100001                       # Number of instructions simulated
sim_ops                                     389157160                       # Number of ops (including micro ops) simulated
system.voltage_domain.voltage                       1                       # Voltage in Volts
system.clk_domain.clock                          1000                       # Clock period in ticks
system.mem_ctrls.bytes_read::ruby.dir_cntrl0    104026496                       # Number of bytes read from this memory
system.mem_ctrls.bytes_read::total          104026496                       # Number of bytes read from this memory
system.mem_ctrls.bytes_written::ruby.dir_cntrl0     58977408                       # Number of bytes written to this memory
system.mem_ctrls.bytes_written::total        58977408                       # Number of bytes written to this memory
system.mem_ctrls.num_reads::ruby.dir_cntrl0       812707                       # Number of read requests responded to by this memory
system.mem_ctrls.num_reads::total              812707                       # Number of read requests responded to by this memory
system.mem_ctrls.num_writes::ruby.dir_cntrl0       460761                       # Number of write requests responded to by this memory
system.mem_ctrls.num_writes::total             460761                       # Number of write requests responded to by this memory
system.mem_ctrls.bw_read::ruby.dir_cntrl0    263797952                       # Total read bandwidth from this memory (bytes/s)
system.mem_ctrls.bw_read::total             263797952                       # Total read bandwidth from this memory (bytes/s)
system.mem_ctrls.bw_write::ruby.dir_cntrl0    149559199                       # Write bandwidth from this memory (bytes/s)
system.mem_ctrls.bw_write::total            149559199                       # Write bandwidth from this memory (bytes/s)
system.mem_ctrls.bw_total::ruby.dir_cntrl0    413357151                       # Total bandwidth to/from this memory (bytes/s)
system.mem_ctrls.bw_total::total            413357151                       # Total bandwidth to/from this memory (bytes/s)
system.mem_ctrls.readReqs                      812707                       # Number of read requests accepted
system.mem_ctrls.writeReqs                     460761                       # Number of write requests accepted
system.mem_ctrls.readBursts                   1625414                       # Number of DRAM read bursts, including those serviced by the write queue
system.mem_ctrls.writeBursts                   921522                       # Number of DRAM write bursts, including those merged in the write queue
system.mem_ctrls.bytesReadDRAM              103935616                       # Total number of bytes read from DRAM
system.mem_ctrls.bytesReadWrQ                   90880                       # Total number of bytes read from write queue
system.mem_ctrls.bytesWritten                58946752                       # Total number of bytes written to DRAM
system.mem_ctrls.bytesReadSys               104026496                       # Total read bytes from the system interface side
system.mem_ctrls.bytesWrittenSys             58977408                       # Total written bytes from the system interface side
system.mem_ctrls.servicedByWrQ                   1420                       # Number of DRAM read bursts serviced by the write queue
system.mem_ctrls.mergedWrBursts                   453                       # Number of DRAM write bursts merged with an existing one
system.mem_ctrls.neitherReadNorWriteReqs            0                       # Number of requests that are neither read nor write
system.mem_ctrls.perBankRdBursts::0            100852                       # Per bank write bursts
system.mem_ctrls.perBankRdBursts::1            101768                       # Per bank write bursts
system.mem_ctrls.perBankRdBursts::2            100970                       # Per bank write bursts
system.mem_ctrls.perBankRdBursts::3            100916                       # Per bank write bursts
system.mem_ctrls.perBankRdBursts::4            101026                       # Per bank write bursts
system.mem_ctrls.perBankRdBursts::5            101466                       # Per bank write bursts
system.mem_ctrls.perBankRdBursts::6            102182                       # Per bank write bursts
system.mem_ctrls.perBankRdBursts::7            102039                       # Per bank write bursts
system.mem_ctrls.perBankRdBursts::8            102730                       # Per bank write bursts
system.mem_ctrls.perBankRdBursts::9            102834                       # Per bank write bursts
system.mem_ctrls.perBankRdBursts::10           101392                       # Per bank write bursts
system.mem_ctrls.perBankRdBursts::11           101494                       # Per bank write bursts
system.mem_ctrls.perBankRdBursts::12           102227                       # Per bank write bursts
system.mem_ctrls.perBankRdBursts::13           100806                       # Per bank write bursts
system.mem_ctrls.perBankRdBursts::14           100514                       # Per bank write bursts
system.mem_ctrls.perBankRdBursts::15           100778                       # Per bank write bursts
system.mem_ctrls.perBankWrBursts::0             57238                       # Per bank write bursts
system.mem_ctrls.perBankWrBursts::1             57220                       # Per bank write bursts
system.mem_ctrls.perBankWrBursts::2             57226                       # Per bank write bursts
system.mem_ctrls.perBankWrBursts::3             57228                       # Per bank write bursts
system.mem_ctrls.perBankWrBursts::4             57476                       # Per bank write bursts
system.mem_ctrls.perBankWrBursts::5             57604                       # Per bank write bursts
system.mem_ctrls.perBankWrBursts::6             57678                       # Per bank write bursts
system.mem_ctrls.perBankWrBursts::7             58421                       # Per bank write bursts
system.mem_ctrls.perBankWrBursts::8             57638                       # Per bank write bursts
system.mem_ctrls.perBankWrBursts::9             57620                       # Per bank write bursts
system.mem_ctrls.perBankWrBursts::10            57400                       # Per bank write bursts
system.mem_ctrls.perBankWrBursts::11            57866                       # Per bank write bursts
system.mem_ctrls.perBankWrBursts::12            58328                       # Per bank write bursts
system.mem_ctrls.perBankWrBursts::13            57496                       # Per bank write bursts
system.mem_ctrls.perBankWrBursts::14            57244                       # Per bank write bursts
system.mem_ctrls.perBankWrBursts::15            57360                       # Per bank write bursts
system.mem_ctrls.numRdRetry                    137922                       # Number of times read queue was full causing retry
system.mem_ctrls.numWrRetry                     12804                       # Number of times write queue was full causing retry
system.mem_ctrls.totGap                  394336933500                       # Total gap between requests
system.mem_ctrls.readPktSize::0                     0                       # Read request sizes (log2)
system.mem_ctrls.readPktSize::1                     0                       # Read request sizes (log2)
system.mem_ctrls.readPktSize::2                     0                       # Read request sizes (log2)
system.mem_ctrls.readPktSize::3                     0                       # Read request sizes (log2)
system.mem_ctrls.readPktSize::4                     0                       # Read request sizes (log2)
system.mem_ctrls.readPktSize::5                     0                       # Read request sizes (log2)
system.mem_ctrls.readPktSize::6               1625414                       # Read request sizes (log2)
system.mem_ctrls.writePktSize::0                    0                       # Write request sizes (log2)
system.mem_ctrls.writePktSize::1                    0                       # Write request sizes (log2)
system.mem_ctrls.writePktSize::2                    0                       # Write request sizes (log2)
system.mem_ctrls.writePktSize::3                    0                       # Write request sizes (log2)
system.mem_ctrls.writePktSize::4                    0                       # Write request sizes (log2)
system.mem_ctrls.writePktSize::5                    0                       # Write request sizes (log2)
system.mem_ctrls.writePktSize::6               921522                       # Write request sizes (log2)
system.mem_ctrls.rdQLenPdf::0                  426586                       # What read queue length does an incoming req see
system.mem_ctrls.rdQLenPdf::1                  428581                       # What read queue length does an incoming req see
system.mem_ctrls.rdQLenPdf::2                   22460                       # What read queue length does an incoming req see
system.mem_ctrls.rdQLenPdf::3                   29474                       # What read queue length does an incoming req see
system.mem_ctrls.rdQLenPdf::4                   57486                       # What read queue length does an incoming req see
system.mem_ctrls.rdQLenPdf::5                   76763                       # What read queue length does an incoming req see
system.mem_ctrls.rdQLenPdf::6                   77195                       # What read queue length does an incoming req see
system.mem_ctrls.rdQLenPdf::7                   68605                       # What read queue length does an incoming req see
system.mem_ctrls.rdQLenPdf::8                   61857                       # What read queue length does an incoming req see
system.mem_ctrls.rdQLenPdf::9                   52650                       # What read queue length does an incoming req see
system.mem_ctrls.rdQLenPdf::10                  44240                       # What read queue length does an incoming req see
system.mem_ctrls.rdQLenPdf::11                  40896                       # What read queue length does an incoming req see
system.mem_ctrls.rdQLenPdf::12                  31065                       # What read queue length does an incoming req see
system.mem_ctrls.rdQLenPdf::13                  25623                       # What read queue length does an incoming req see
system.mem_ctrls.rdQLenPdf::14                  17738                       # What read queue length does an incoming req see
system.mem_ctrls.rdQLenPdf::15                  16217                       # What read queue length does an incoming req see
system.mem_ctrls.rdQLenPdf::16                    636                       # What read queue length does an incoming req see
system.mem_ctrls.rdQLenPdf::17                    570                       # What read queue length does an incoming req see
system.mem_ctrls.rdQLenPdf::18                    426                       # What read queue length does an incoming req see
system.mem_ctrls.rdQLenPdf::19                    387                       # What read queue length does an incoming req see
system.mem_ctrls.rdQLenPdf::20                    283                       # What read queue length does an incoming req see
system.mem_ctrls.rdQLenPdf::21                    262                       # What read queue length does an incoming req see
system.mem_ctrls.rdQLenPdf::22                    269                       # What read queue length does an incoming req see
system.mem_ctrls.rdQLenPdf::23                    263                       # What read queue length does an incoming req see
system.mem_ctrls.rdQLenPdf::24                    306                       # What read queue length does an incoming req see
system.mem_ctrls.rdQLenPdf::25                    367                       # What read queue length does an incoming req see
system.mem_ctrls.rdQLenPdf::26                    504                       # What read queue length does an incoming req see
system.mem_ctrls.rdQLenPdf::27                    553                       # What read queue length does an incoming req see
system.mem_ctrls.rdQLenPdf::28                    729                       # What read queue length does an incoming req see
system.mem_ctrls.rdQLenPdf::29                    854                       # What read queue length does an incoming req see
system.mem_ctrls.rdQLenPdf::30                  70219                       # What read queue length does an incoming req see
system.mem_ctrls.rdQLenPdf::31                  69930                       # What read queue length does an incoming req see
system.mem_ctrls.wrQLenPdf::0                       1                       # What write queue length does an incoming req see
system.mem_ctrls.wrQLenPdf::1                       1                       # What write queue length does an incoming req see
system.mem_ctrls.wrQLenPdf::2                       1                       # What write queue length does an incoming req see
system.mem_ctrls.wrQLenPdf::3                       1                       # What write queue length does an incoming req see
system.mem_ctrls.wrQLenPdf::4                       1                       # What write queue length does an incoming req see
system.mem_ctrls.wrQLenPdf::5                       1                       # What write queue length does an incoming req see
system.mem_ctrls.wrQLenPdf::6                       1                       # What write queue length does an incoming req see
system.mem_ctrls.wrQLenPdf::7                       1                       # What write queue length does an incoming req see
system.mem_ctrls.wrQLenPdf::8                       1                       # What write queue length does an incoming req see
system.mem_ctrls.wrQLenPdf::9                       1                       # What write queue length does an incoming req see
system.mem_ctrls.wrQLenPdf::10                      1                       # What write queue length does an incoming req see
system.mem_ctrls.wrQLenPdf::11                      1                       # What write queue length does an incoming req see
system.mem_ctrls.wrQLenPdf::12                      1                       # What write queue length does an incoming req see
system.mem_ctrls.wrQLenPdf::13                      1                       # What write queue length does an incoming req see
system.mem_ctrls.wrQLenPdf::14                      1                       # What write queue length does an incoming req see
system.mem_ctrls.wrQLenPdf::15                   1369                       # What write queue length does an incoming req see
system.mem_ctrls.wrQLenPdf::16                   1460                       # What write queue length does an incoming req see
system.mem_ctrls.wrQLenPdf::17                  28608                       # What write queue length does an incoming req see
system.mem_ctrls.wrQLenPdf::18                  30956                       # What write queue length does an incoming req see
system.mem_ctrls.wrQLenPdf::19                  31395                       # What write queue length does an incoming req see
system.mem_ctrls.wrQLenPdf::20                  31844                       # What write queue length does an incoming req see
system.mem_ctrls.wrQLenPdf::21                  32982                       # What write queue length does an incoming req see
system.mem_ctrls.wrQLenPdf::22                  35214                       # What write queue length does an incoming req see
system.mem_ctrls.wrQLenPdf::23                  40035                       # What write queue length does an incoming req see
system.mem_ctrls.wrQLenPdf::24                  45747                       # What write queue length does an incoming req see
system.mem_ctrls.wrQLenPdf::25                  47658                       # What write queue length does an incoming req see
system.mem_ctrls.wrQLenPdf::26                  49941                       # What write queue length does an incoming req see
system.mem_ctrls.wrQLenPdf::27                  53023                       # What write queue length does an incoming req see
system.mem_ctrls.wrQLenPdf::28                  55327                       # What write queue length does an incoming req see
system.mem_ctrls.wrQLenPdf::29                  55834                       # What write queue length does an incoming req see
system.mem_ctrls.wrQLenPdf::30                  55663                       # What write queue length does an incoming req see
system.mem_ctrls.wrQLenPdf::31                  55813                       # What write queue length does an incoming req see
system.mem_ctrls.wrQLenPdf::32                  56189                       # What write queue length does an incoming req see
system.mem_ctrls.wrQLenPdf::33                  21454                       # What write queue length does an incoming req see
system.mem_ctrls.wrQLenPdf::34                   9789                       # What write queue length does an incoming req see
system.mem_ctrls.wrQLenPdf::35                   7015                       # What write queue length does an incoming req see
system.mem_ctrls.wrQLenPdf::36                   5700                       # What write queue length does an incoming req see
system.mem_ctrls.wrQLenPdf::37                   4651                       # What write queue length does an incoming req see
system.mem_ctrls.wrQLenPdf::38                   4002                       # What write queue length does an incoming req see
system.mem_ctrls.wrQLenPdf::39                   3752                       # What write queue length does an incoming req see
system.mem_ctrls.wrQLenPdf::40                   3425                       # What write queue length does an incoming req see
system.mem_ctrls.wrQLenPdf::41                   3381                       # What write queue length does an incoming req see
system.mem_ctrls.wrQLenPdf::42                   3169                       # What write queue length does an incoming req see
system.mem_ctrls.wrQLenPdf::43                   3272                       # What write queue length does an incoming req see
system.mem_ctrls.wrQLenPdf::44                   3333                       # What write queue length does an incoming req see
system.mem_ctrls.wrQLenPdf::45                   3884                       # What write queue length does an incoming req see
system.mem_ctrls.wrQLenPdf::46                   3997                       # What write queue length does an incoming req see
system.mem_ctrls.wrQLenPdf::47                   4932                       # What write queue length does an incoming req see
system.mem_ctrls.wrQLenPdf::48                   5430                       # What write queue length does an incoming req see
system.mem_ctrls.wrQLenPdf::49                   6675                       # What write queue length does an incoming req see
system.mem_ctrls.wrQLenPdf::50                   7295                       # What write queue length does an incoming req see
system.mem_ctrls.wrQLenPdf::51                   8473                       # What write queue length does an incoming req see
system.mem_ctrls.wrQLenPdf::52                   9084                       # What write queue length does an incoming req see
system.mem_ctrls.wrQLenPdf::53                  10658                       # What write queue length does an incoming req see
system.mem_ctrls.wrQLenPdf::54                  12419                       # What write queue length does an incoming req see
system.mem_ctrls.wrQLenPdf::55                  11917                       # What write queue length does an incoming req see
system.mem_ctrls.wrQLenPdf::56                  10880                       # What write queue length does an incoming req see
system.mem_ctrls.wrQLenPdf::57                   8409                       # What write queue length does an incoming req see
system.mem_ctrls.wrQLenPdf::58                   6820                       # What write queue length does an incoming req see
system.mem_ctrls.wrQLenPdf::59                   5011                       # What write queue length does an incoming req see
system.mem_ctrls.wrQLenPdf::60                   3967                       # What write queue length does an incoming req see
system.mem_ctrls.wrQLenPdf::61                   2971                       # What write queue length does an incoming req see
system.mem_ctrls.wrQLenPdf::62                   8875                       # What write queue length does an incoming req see
system.mem_ctrls.wrQLenPdf::63                   7356                       # What write queue length does an incoming req see
system.mem_ctrls.bytesPerActivate::samples       344261                       # Bytes accessed per row activation
system.mem_ctrls.bytesPerActivate::mean    473.139252                       # Bytes accessed per row activation
system.mem_ctrls.bytesPerActivate::gmean   324.640056                       # Bytes accessed per row activation
system.mem_ctrls.bytesPerActivate::stdev   379.532863                       # Bytes accessed per row activation
system.mem_ctrls.bytesPerActivate::0-127         2503      0.73%      0.73% # Bytes accessed per row activation
system.mem_ctrls.bytesPerActivate::128-255       139921     40.64%     41.37% # Bytes accessed per row activation
system.mem_ctrls.bytesPerActivate::256-383        38037     11.05%     52.42% # Bytes accessed per row activation
system.mem_ctrls.bytesPerActivate::384-511        27709      8.05%     60.47% # Bytes accessed per row activation
system.mem_ctrls.bytesPerActivate::512-639        14545      4.22%     64.69% # Bytes accessed per row activation
system.mem_ctrls.bytesPerActivate::640-767        12077      3.51%     68.20% # Bytes accessed per row activation
system.mem_ctrls.bytesPerActivate::768-895         9144      2.66%     70.86% # Bytes accessed per row activation
system.mem_ctrls.bytesPerActivate::896-1023         9112      2.65%     73.50% # Bytes accessed per row activation
system.mem_ctrls.bytesPerActivate::1024-1151        91213     26.50%    100.00% # Bytes accessed per row activation
system.mem_ctrls.bytesPerActivate::total       344261                       # Bytes accessed per row activation
system.mem_ctrls.rdPerTurnAround::samples        57361                       # Reads before turning the bus around for writes
system.mem_ctrls.rdPerTurnAround::mean      27.505274                       # Reads before turning the bus around for writes
system.mem_ctrls.rdPerTurnAround::gmean     20.989099                       # Reads before turning the bus around for writes
system.mem_ctrls.rdPerTurnAround::stdev    279.128339                       # Reads before turning the bus around for writes
system.mem_ctrls.rdPerTurnAround::0-4095        57359    100.00%    100.00% # Reads before turning the bus around for writes
system.mem_ctrls.rdPerTurnAround::4096-8191            1      0.00%    100.00% # Reads before turning the bus around for writes
system.mem_ctrls.rdPerTurnAround::65536-69631            1      0.00%    100.00% # Reads before turning the bus around for writes
system.mem_ctrls.rdPerTurnAround::total         57361                       # Reads before turning the bus around for writes
system.mem_ctrls.wrPerTurnAround::samples        57361                       # Writes before turning the bus around for reads
system.mem_ctrls.wrPerTurnAround::mean      16.056955                       # Writes before turning the bus around for reads
system.mem_ctrls.wrPerTurnAround::gmean     16.053024                       # Writes before turning the bus around for reads
system.mem_ctrls.wrPerTurnAround::stdev      0.383520                       # Writes before turning the bus around for reads
system.mem_ctrls.wrPerTurnAround::16            55840     97.35%     97.35% # Writes before turning the bus around for reads
system.mem_ctrls.wrPerTurnAround::17               34      0.06%     97.41% # Writes before turning the bus around for reads
system.mem_ctrls.wrPerTurnAround::18             1381      2.41%     99.82% # Writes before turning the bus around for reads
system.mem_ctrls.wrPerTurnAround::19               60      0.10%     99.92% # Writes before turning the bus around for reads
system.mem_ctrls.wrPerTurnAround::20               21      0.04%     99.96% # Writes before turning the bus around for reads
system.mem_ctrls.wrPerTurnAround::21               13      0.02%     99.98% # Writes before turning the bus around for reads
system.mem_ctrls.wrPerTurnAround::22                1      0.00%     99.98% # Writes before turning the bus around for reads
system.mem_ctrls.wrPerTurnAround::24                3      0.01%     99.99% # Writes before turning the bus around for reads
system.mem_ctrls.wrPerTurnAround::25                1      0.00%     99.99% # Writes before turning the bus around for reads
system.mem_ctrls.wrPerTurnAround::29                3      0.01%     99.99% # Writes before turning the bus around for reads
system.mem_ctrls.wrPerTurnAround::30                2      0.00%    100.00% # Writes before turning the bus around for reads
system.mem_ctrls.wrPerTurnAround::32                1      0.00%    100.00% # Writes before turning the bus around for reads
system.mem_ctrls.wrPerTurnAround::36                1      0.00%    100.00% # Writes before turning the bus around for reads
system.mem_ctrls.wrPerTurnAround::total         57361                       # Writes before turning the bus around for reads
system.mem_ctrls.totQLat                 122013404134                       # Total ticks spent queuing
system.mem_ctrls.totMemAccLat            152463291634                       # Total ticks spent from burst creation until serviced by the DRAM
system.mem_ctrls.totBusLat                 8119970000                       # Total ticks spent in databus transfers
system.mem_ctrls.avgQLat                     75131.68                       # Average queueing delay per DRAM burst
system.mem_ctrls.avgBusLat                    5000.00                       # Average bus latency per DRAM burst
system.mem_ctrls.avgMemAccLat                93881.68                       # Average memory access latency per DRAM burst
system.mem_ctrls.avgRdBW                       263.57                       # Average DRAM read bandwidth in MiByte/s
system.mem_ctrls.avgWrBW                       149.48                       # Average achieved write bandwidth in MiByte/s
system.mem_ctrls.avgRdBWSys                    263.80                       # Average system read bandwidth in MiByte/s
system.mem_ctrls.avgWrBWSys                    149.56                       # Average system write bandwidth in MiByte/s
system.mem_ctrls.peakBW                      12800.00                       # Theoretical peak bandwidth in MiByte/s
system.mem_ctrls.busUtil                         3.23                       # Data bus utilization in percentage
system.mem_ctrls.busUtilRead                     2.06                       # Data bus utilization in percentage for reads
system.mem_ctrls.busUtilWrite                    1.17                       # Data bus utilization in percentage for writes
system.mem_ctrls.avgRdQLen                       2.31                       # Average read queue length when enqueuing
system.mem_ctrls.avgWrQLen                      26.32                       # Average write queue length when enqueuing
system.mem_ctrls.readRowHits                  1364208                       # Number of row buffer hits during reads
system.mem_ctrls.writeRowHits                  836570                       # Number of row buffer hits during writes
system.mem_ctrls.readRowHitRate                 84.00                       # Row buffer hit rate for reads
system.mem_ctrls.writeRowHitRate                90.83                       # Row buffer hit rate for writes
system.mem_ctrls.avgGap                     309655.94                       # Average gap between requests
system.mem_ctrls.pageHitRate                    86.47                       # Row buffer hit rate, read and write combined
system.mem_ctrls_0.actEnergy               1298498040                       # Energy for activate commands per rank (pJ)
system.mem_ctrls_0.preEnergy                708505875                       # Energy for precharge commands per rank (pJ)
system.mem_ctrls_0.readEnergy              6331033800                       # Energy for read commands per rank (pJ)
system.mem_ctrls_0.writeEnergy             2981389680                       # Energy for write commands per rank (pJ)
system.mem_ctrls_0.refreshEnergy          25770260880                       # Energy for refresh commands per rank (pJ)
system.mem_ctrls_0.actBackEnergy         139893305355                       # Energy for active background per rank (pJ)
system.mem_ctrls_0.preBackEnergy         114018318000                       # Energy for precharge background per rank (pJ)
system.mem_ctrls_0.totalEnergy           291001311630                       # Total energy per rank (pJ)
system.mem_ctrls_0.averagePower            737.546998                       # Core power per rank (mW)
system.mem_ctrls_0.memoryStateTime::IDLE 188488002754                       # Time in different power states
system.mem_ctrls_0.memoryStateTime::REF   13167960000                       # Time in different power states
system.mem_ctrls_0.memoryStateTime::PRE_PDN            0                       # Time in different power states
system.mem_ctrls_0.memoryStateTime::ACT  192686468496                       # Time in different power states
system.mem_ctrls_0.memoryStateTime::ACT_PDN            0                       # Time in different power states
system.mem_ctrls_1.actEnergy               1305884160                       # Energy for activate commands per rank (pJ)
system.mem_ctrls_1.preEnergy                712536000                       # Energy for precharge commands per rank (pJ)
system.mem_ctrls_1.readEnergy              6347148600                       # Energy for read commands per rank (pJ)
system.mem_ctrls_1.writeEnergy             2986968960                       # Energy for write commands per rank (pJ)
system.mem_ctrls_1.refreshEnergy          25770260880                       # Energy for refresh commands per rank (pJ)
system.mem_ctrls_1.actBackEnergy         140678199630                       # Energy for active background per rank (pJ)
system.mem_ctrls_1.preBackEnergy         113329806000                       # Energy for precharge background per rank (pJ)
system.mem_ctrls_1.totalEnergy           291130804230                       # Total energy per rank (pJ)
system.mem_ctrls_1.averagePower            737.875225                       # Core power per rank (mW)
system.mem_ctrls_1.memoryStateTime::IDLE 187432554759                       # Time in different power states
system.mem_ctrls_1.memoryStateTime::REF   13167960000                       # Time in different power states
system.mem_ctrls_1.memoryStateTime::PRE_PDN            0                       # Time in different power states
system.mem_ctrls_1.memoryStateTime::ACT  193741888991                       # Time in different power states
system.mem_ctrls_1.memoryStateTime::ACT_PDN            0                       # Time in different power states
system.ruby_clk_domain.clock                      500                       # Clock period in ticks
system.ruby.phys_mem.bytes_read::gpu.ce      18612572                       # Number of bytes read from this memory
system.ruby.phys_mem.bytes_read::gpu.shader_cores0.data      8936608                       # Number of bytes read from this memory
system.ruby.phys_mem.bytes_read::gpu.shader_cores0.inst          208                       # Number of bytes read from this memory
system.ruby.phys_mem.bytes_read::gpu.shader_cores1.data      8916576                       # Number of bytes read from this memory
system.ruby.phys_mem.bytes_read::gpu.shader_cores1.inst          192                       # Number of bytes read from this memory
system.ruby.phys_mem.bytes_read::gpu.shader_cores2.data      8949472                       # Number of bytes read from this memory
system.ruby.phys_mem.bytes_read::gpu.shader_cores2.inst          192                       # Number of bytes read from this memory
system.ruby.phys_mem.bytes_read::gpu.shader_cores3.data      8980640                       # Number of bytes read from this memory
system.ruby.phys_mem.bytes_read::gpu.shader_cores3.inst          192                       # Number of bytes read from this memory
system.ruby.phys_mem.bytes_read::switch_cpus0.inst   2114927744                       # Number of bytes read from this memory
system.ruby.phys_mem.bytes_read::switch_cpus0.data    293812031                       # Number of bytes read from this memory
system.ruby.phys_mem.bytes_read::total     2463136427                       # Number of bytes read from this memory
system.ruby.phys_mem.bytes_inst_read::gpu.shader_cores0.inst          208                       # Number of instructions bytes read from this memory
system.ruby.phys_mem.bytes_inst_read::gpu.shader_cores1.inst          192                       # Number of instructions bytes read from this memory
system.ruby.phys_mem.bytes_inst_read::gpu.shader_cores2.inst          192                       # Number of instructions bytes read from this memory
system.ruby.phys_mem.bytes_inst_read::gpu.shader_cores3.inst          192                       # Number of instructions bytes read from this memory
system.ruby.phys_mem.bytes_inst_read::switch_cpus0.inst   2114927744                       # Number of instructions bytes read from this memory
system.ruby.phys_mem.bytes_inst_read::total   2114928528                       # Number of instructions bytes read from this memory
system.ruby.phys_mem.bytes_written::gpu.ce     18612572                       # Number of bytes written to this memory
system.ruby.phys_mem.bytes_written::gpu.shader_cores0.data      2160768                       # Number of bytes written to this memory
system.ruby.phys_mem.bytes_written::gpu.shader_cores1.data      2154432                       # Number of bytes written to this memory
system.ruby.phys_mem.bytes_written::gpu.shader_cores2.data      2162752                       # Number of bytes written to this memory
system.ruby.phys_mem.bytes_written::gpu.shader_cores3.data      2172928                       # Number of bytes written to this memory
system.ruby.phys_mem.bytes_written::switch_cpus0.data    202940984                       # Number of bytes written to this memory
system.ruby.phys_mem.bytes_written::total    230204436                       # Number of bytes written to this memory
system.ruby.phys_mem.num_reads::gpu.ce         145416                       # Number of read requests responded to by this memory
system.ruby.phys_mem.num_reads::gpu.shader_cores0.data       107849                       # Number of read requests responded to by this memory
system.ruby.phys_mem.num_reads::gpu.shader_cores0.inst           13                       # Number of read requests responded to by this memory
system.ruby.phys_mem.num_reads::gpu.shader_cores1.data       107745                       # Number of read requests responded to by this memory
system.ruby.phys_mem.num_reads::gpu.shader_cores1.inst           12                       # Number of read requests responded to by this memory
system.ruby.phys_mem.num_reads::gpu.shader_cores2.data       108108                       # Number of read requests responded to by this memory
system.ruby.phys_mem.num_reads::gpu.shader_cores2.inst           12                       # Number of read requests responded to by this memory
system.ruby.phys_mem.num_reads::gpu.shader_cores3.data       108431                       # Number of read requests responded to by this memory
system.ruby.phys_mem.num_reads::gpu.shader_cores3.inst           12                       # Number of read requests responded to by this memory
system.ruby.phys_mem.num_reads::switch_cpus0.inst    264365968                       # Number of read requests responded to by this memory
system.ruby.phys_mem.num_reads::switch_cpus0.data     47558603                       # Number of read requests responded to by this memory
system.ruby.phys_mem.num_reads::total       312502169                       # Number of read requests responded to by this memory
system.ruby.phys_mem.num_writes::gpu.ce        145416                       # Number of write requests responded to by this memory
system.ruby.phys_mem.num_writes::gpu.shader_cores0.data        56360                       # Number of write requests responded to by this memory
system.ruby.phys_mem.num_writes::gpu.shader_cores1.data        56106                       # Number of write requests responded to by this memory
system.ruby.phys_mem.num_writes::gpu.shader_cores2.data        56264                       # Number of write requests responded to by this memory
system.ruby.phys_mem.num_writes::gpu.shader_cores3.data        56552                       # Number of write requests responded to by this memory
system.ruby.phys_mem.num_writes::switch_cpus0.data     32754595                       # Number of write requests responded to by this memory
system.ruby.phys_mem.num_writes::total       33125293                       # Number of write requests responded to by this memory
system.ruby.phys_mem.bw_read::gpu.ce         47199113                       # Total read bandwidth from this memory (bytes/s)
system.ruby.phys_mem.bw_read::gpu.shader_cores0.data     22662100                       # Total read bandwidth from this memory (bytes/s)
system.ruby.phys_mem.bw_read::gpu.shader_cores0.inst          527                       # Total read bandwidth from this memory (bytes/s)
system.ruby.phys_mem.bw_read::gpu.shader_cores1.data     22611302                       # Total read bandwidth from this memory (bytes/s)
system.ruby.phys_mem.bw_read::gpu.shader_cores1.inst          487                       # Total read bandwidth from this memory (bytes/s)
system.ruby.phys_mem.bw_read::gpu.shader_cores2.data     22694722                       # Total read bandwidth from this memory (bytes/s)
system.ruby.phys_mem.bw_read::gpu.shader_cores2.inst          487                       # Total read bandwidth from this memory (bytes/s)
system.ruby.phys_mem.bw_read::gpu.shader_cores3.data     22773760                       # Total read bandwidth from this memory (bytes/s)
system.ruby.phys_mem.bw_read::gpu.shader_cores3.inst          487                       # Total read bandwidth from this memory (bytes/s)
system.ruby.phys_mem.bw_read::switch_cpus0.inst   5363187534                       # Total read bandwidth from this memory (bytes/s)
system.ruby.phys_mem.bw_read::switch_cpus0.data    745069909                       # Total read bandwidth from this memory (bytes/s)
system.ruby.phys_mem.bw_read::total        6246200428                       # Total read bandwidth from this memory (bytes/s)
system.ruby.phys_mem.bw_inst_read::gpu.shader_cores0.inst          527                       # Instruction read bandwidth from this memory (bytes/s)
system.ruby.phys_mem.bw_inst_read::gpu.shader_cores1.inst          487                       # Instruction read bandwidth from this memory (bytes/s)
system.ruby.phys_mem.bw_inst_read::gpu.shader_cores2.inst          487                       # Instruction read bandwidth from this memory (bytes/s)
system.ruby.phys_mem.bw_inst_read::gpu.shader_cores3.inst          487                       # Instruction read bandwidth from this memory (bytes/s)
system.ruby.phys_mem.bw_inst_read::switch_cpus0.inst   5363187534                       # Instruction read bandwidth from this memory (bytes/s)
system.ruby.phys_mem.bw_inst_read::total   5363189522                       # Instruction read bandwidth from this memory (bytes/s)
system.ruby.phys_mem.bw_write::gpu.ce        47199113                       # Write bandwidth from this memory (bytes/s)
system.ruby.phys_mem.bw_write::gpu.shader_cores0.data      5479433                       # Write bandwidth from this memory (bytes/s)
system.ruby.phys_mem.bw_write::gpu.shader_cores1.data      5463365                       # Write bandwidth from this memory (bytes/s)
system.ruby.phys_mem.bw_write::gpu.shader_cores2.data      5484464                       # Write bandwidth from this memory (bytes/s)
system.ruby.phys_mem.bw_write::gpu.shader_cores3.data      5510269                       # Write bandwidth from this memory (bytes/s)
system.ruby.phys_mem.bw_write::switch_cpus0.data    514632502                       # Write bandwidth from this memory (bytes/s)
system.ruby.phys_mem.bw_write::total        583769145                       # Write bandwidth from this memory (bytes/s)
system.ruby.phys_mem.bw_total::gpu.ce        94398227                       # Total bandwidth to/from this memory (bytes/s)
system.ruby.phys_mem.bw_total::gpu.shader_cores0.data     28141533                       # Total bandwidth to/from this memory (bytes/s)
system.ruby.phys_mem.bw_total::gpu.shader_cores0.inst          527                       # Total bandwidth to/from this memory (bytes/s)
system.ruby.phys_mem.bw_total::gpu.shader_cores1.data     28074667                       # Total bandwidth to/from this memory (bytes/s)
system.ruby.phys_mem.bw_total::gpu.shader_cores1.inst          487                       # Total bandwidth to/from this memory (bytes/s)
system.ruby.phys_mem.bw_total::gpu.shader_cores2.data     28179186                       # Total bandwidth to/from this memory (bytes/s)
system.ruby.phys_mem.bw_total::gpu.shader_cores2.inst          487                       # Total bandwidth to/from this memory (bytes/s)
system.ruby.phys_mem.bw_total::gpu.shader_cores3.data     28284029                       # Total bandwidth to/from this memory (bytes/s)
system.ruby.phys_mem.bw_total::gpu.shader_cores3.inst          487                       # Total bandwidth to/from this memory (bytes/s)
system.ruby.phys_mem.bw_total::switch_cpus0.inst   5363187534                       # Total bandwidth to/from this memory (bytes/s)
system.ruby.phys_mem.bw_total::switch_cpus0.data   1259702411                       # Total bandwidth to/from this memory (bytes/s)
system.ruby.phys_mem.bw_total::total       6829969573                       # Total bandwidth to/from this memory (bytes/s)
system.cpu_voltage_domain.voltage                   1                       # Voltage in Volts
system.cpu_clk_domain.clock                       500                       # Clock period in ticks
system.cpu0.apic_clk_domain.clock                8000                       # Clock period in ticks
system.cpu0.workload.num_syscalls                 155                       # Number of system calls
system.cpu0.numCycles                               0                       # number of cpu cycles simulated
system.cpu0.numWorkItemsStarted                     0                       # number of work items this cpu started
system.cpu0.numWorkItemsCompleted                   0                       # number of work items this cpu completed
system.cpu0.committedInsts                          0                       # Number of instructions committed
system.cpu0.committedOps                            0                       # Number of ops (including micro ops) committed
system.cpu0.num_int_alu_accesses                    0                       # Number of integer alu accesses
system.cpu0.num_fp_alu_accesses                     0                       # Number of float alu accesses
system.cpu0.num_func_calls                          0                       # number of times a function call or return occured
system.cpu0.num_conditional_control_insts            0                       # number of instructions that are conditional controls
system.cpu0.num_int_insts                           0                       # number of integer instructions
system.cpu0.num_fp_insts                            0                       # number of float instructions
system.cpu0.num_int_register_reads                  0                       # number of times the integer registers were read
system.cpu0.num_int_register_writes                 0                       # number of times the integer registers were written
system.cpu0.num_fp_register_reads                   0                       # number of times the floating registers were read
system.cpu0.num_fp_register_writes                  0                       # number of times the floating registers were written
system.cpu0.num_mem_refs                            0                       # number of memory refs
system.cpu0.num_load_insts                          0                       # Number of load instructions
system.cpu0.num_store_insts                         0                       # Number of store instructions
system.cpu0.num_idle_cycles                         0                       # Number of idle cycles
system.cpu0.num_busy_cycles                         0                       # Number of busy cycles
system.cpu0.not_idle_fraction                       1                       # Percentage of non-idle cycles
system.cpu0.idle_fraction                           0                       # Percentage of idle cycles
system.cpu0.op_class::No_OpClass                    0                       # Class of executed instruction
system.cpu0.op_class::IntAlu                        0                       # Class of executed instruction
system.cpu0.op_class::IntMult                       0                       # Class of executed instruction
system.cpu0.op_class::IntDiv                        0                       # Class of executed instruction
system.cpu0.op_class::FloatAdd                      0                       # Class of executed instruction
system.cpu0.op_class::FloatCmp                      0                       # Class of executed instruction
system.cpu0.op_class::FloatCvt                      0                       # Class of executed instruction
system.cpu0.op_class::FloatMult                     0                       # Class of executed instruction
system.cpu0.op_class::FloatDiv                      0                       # Class of executed instruction
system.cpu0.op_class::FloatSqrt                     0                       # Class of executed instruction
system.cpu0.op_class::SimdAdd                       0                       # Class of executed instruction
system.cpu0.op_class::SimdAddAcc                    0                       # Class of executed instruction
system.cpu0.op_class::SimdAlu                       0                       # Class of executed instruction
system.cpu0.op_class::SimdCmp                       0                       # Class of executed instruction
system.cpu0.op_class::SimdCvt                       0                       # Class of executed instruction
system.cpu0.op_class::SimdMisc                      0                       # Class of executed instruction
system.cpu0.op_class::SimdMult                      0                       # Class of executed instruction
system.cpu0.op_class::SimdMultAcc                   0                       # Class of executed instruction
system.cpu0.op_class::SimdShift                     0                       # Class of executed instruction
system.cpu0.op_class::SimdShiftAcc                  0                       # Class of executed instruction
system.cpu0.op_class::SimdSqrt                      0                       # Class of executed instruction
system.cpu0.op_class::SimdFloatAdd                  0                       # Class of executed instruction
system.cpu0.op_class::SimdFloatAlu                  0                       # Class of executed instruction
system.cpu0.op_class::SimdFloatCmp                  0                       # Class of executed instruction
system.cpu0.op_class::SimdFloatCvt                  0                       # Class of executed instruction
system.cpu0.op_class::SimdFloatDiv                  0                       # Class of executed instruction
system.cpu0.op_class::SimdFloatMisc                 0                       # Class of executed instruction
system.cpu0.op_class::SimdFloatMult                 0                       # Class of executed instruction
system.cpu0.op_class::SimdFloatMultAcc              0                       # Class of executed instruction
system.cpu0.op_class::SimdFloatSqrt                 0                       # Class of executed instruction
system.cpu0.op_class::MemRead                       0                       # Class of executed instruction
system.cpu0.op_class::MemWrite                      0                       # Class of executed instruction
system.cpu0.op_class::IprAccess                     0                       # Class of executed instruction
system.cpu0.op_class::InstPrefetch                  0                       # Class of executed instruction
system.cpu0.op_class::total                         0                       # Class of executed instruction
system.cpu1.apic_clk_domain.clock                8000                       # Clock period in ticks
system.cpu1.numCycles                               0                       # number of cpu cycles simulated
system.cpu1.numWorkItemsStarted                     0                       # number of work items this cpu started
system.cpu1.numWorkItemsCompleted                   0                       # number of work items this cpu completed
system.cpu1.committedInsts                          0                       # Number of instructions committed
system.cpu1.committedOps                            0                       # Number of ops (including micro ops) committed
system.cpu1.num_int_alu_accesses                    0                       # Number of integer alu accesses
system.cpu1.num_fp_alu_accesses                     0                       # Number of float alu accesses
system.cpu1.num_func_calls                          0                       # number of times a function call or return occured
system.cpu1.num_conditional_control_insts            0                       # number of instructions that are conditional controls
system.cpu1.num_int_insts                           0                       # number of integer instructions
system.cpu1.num_fp_insts                            0                       # number of float instructions
system.cpu1.num_int_register_reads                  0                       # number of times the integer registers were read
system.cpu1.num_int_register_writes                 0                       # number of times the integer registers were written
system.cpu1.num_fp_register_reads                   0                       # number of times the floating registers were read
system.cpu1.num_fp_register_writes                  0                       # number of times the floating registers were written
system.cpu1.num_mem_refs                            0                       # number of memory refs
system.cpu1.num_load_insts                          0                       # Number of load instructions
system.cpu1.num_store_insts                         0                       # Number of store instructions
system.cpu1.num_idle_cycles                         0                       # Number of idle cycles
system.cpu1.num_busy_cycles                         0                       # Number of busy cycles
system.cpu1.not_idle_fraction                       0                       # Percentage of non-idle cycles
system.cpu1.idle_fraction                           1                       # Percentage of idle cycles
system.cpu1.op_class::No_OpClass                    0                       # Class of executed instruction
system.cpu1.op_class::IntAlu                        0                       # Class of executed instruction
system.cpu1.op_class::IntMult                       0                       # Class of executed instruction
system.cpu1.op_class::IntDiv                        0                       # Class of executed instruction
system.cpu1.op_class::FloatAdd                      0                       # Class of executed instruction
system.cpu1.op_class::FloatCmp                      0                       # Class of executed instruction
system.cpu1.op_class::FloatCvt                      0                       # Class of executed instruction
system.cpu1.op_class::FloatMult                     0                       # Class of executed instruction
system.cpu1.op_class::FloatDiv                      0                       # Class of executed instruction
system.cpu1.op_class::FloatSqrt                     0                       # Class of executed instruction
system.cpu1.op_class::SimdAdd                       0                       # Class of executed instruction
system.cpu1.op_class::SimdAddAcc                    0                       # Class of executed instruction
system.cpu1.op_class::SimdAlu                       0                       # Class of executed instruction
system.cpu1.op_class::SimdCmp                       0                       # Class of executed instruction
system.cpu1.op_class::SimdCvt                       0                       # Class of executed instruction
system.cpu1.op_class::SimdMisc                      0                       # Class of executed instruction
system.cpu1.op_class::SimdMult                      0                       # Class of executed instruction
system.cpu1.op_class::SimdMultAcc                   0                       # Class of executed instruction
system.cpu1.op_class::SimdShift                     0                       # Class of executed instruction
system.cpu1.op_class::SimdShiftAcc                  0                       # Class of executed instruction
system.cpu1.op_class::SimdSqrt                      0                       # Class of executed instruction
system.cpu1.op_class::SimdFloatAdd                  0                       # Class of executed instruction
system.cpu1.op_class::SimdFloatAlu                  0                       # Class of executed instruction
system.cpu1.op_class::SimdFloatCmp                  0                       # Class of executed instruction
system.cpu1.op_class::SimdFloatCvt                  0                       # Class of executed instruction
system.cpu1.op_class::SimdFloatDiv                  0                       # Class of executed instruction
system.cpu1.op_class::SimdFloatMisc                 0                       # Class of executed instruction
system.cpu1.op_class::SimdFloatMult                 0                       # Class of executed instruction
system.cpu1.op_class::SimdFloatMultAcc              0                       # Class of executed instruction
system.cpu1.op_class::SimdFloatSqrt                 0                       # Class of executed instruction
system.cpu1.op_class::MemRead                       0                       # Class of executed instruction
system.cpu1.op_class::MemWrite                      0                       # Class of executed instruction
system.cpu1.op_class::IprAccess                     0                       # Class of executed instruction
system.cpu1.op_class::InstPrefetch                  0                       # Class of executed instruction
system.cpu1.op_class::total                         0                       # Class of executed instruction
system.gpu.clk_domain.voltage_domain.voltage            1                       # Voltage in Volts
system.gpu.clk_domain.clock                      1429                       # Clock period in ticks
system.gpu.dram_wrapper.clk_domain.clock          541                       # Clock period in ticks
system.gpu.icnt_wrapper.clk_domain.clock         2858                       # Clock period in ticks
system.ruby.delayHist::bucket_size                256                       # delay histogram for all message
system.ruby.delayHist::max_bucket                2559                       # delay histogram for all message
system.ruby.delayHist::samples                7475125                       # delay histogram for all message
system.ruby.delayHist::mean                  3.734261                       # delay histogram for all message
system.ruby.delayHist::stdev                24.600155                       # delay histogram for all message
system.ruby.delayHist                    |     7465134     99.87%     99.87% |        6060      0.08%     99.95% |        2138      0.03%     99.98% |        1066      0.01%     99.99% |         498      0.01%    100.00% |         142      0.00%    100.00% |          48      0.00%    100.00% |          34      0.00%    100.00% |           5      0.00%    100.00% |           0      0.00%    100.00% # delay histogram for all message
system.ruby.delayHist::total                  7475125                       # delay histogram for all message
system.ruby.outstanding_req_hist::bucket_size            8                      
system.ruby.outstanding_req_hist::max_bucket           79                      
system.ruby.outstanding_req_hist::samples    345627463                      
system.ruby.outstanding_req_hist::mean       1.084326                      
system.ruby.outstanding_req_hist::gmean      1.007981                      
system.ruby.outstanding_req_hist::stdev      2.041647                      
system.ruby.outstanding_req_hist         |   344878817     99.78%     99.78% |      112910      0.03%     99.82% |      128611      0.04%     99.85% |      107849      0.03%     99.88% |       74974      0.02%     99.91% |       33086      0.01%     99.92% |         776      0.00%     99.92% |         110      0.00%     99.92% |      290330      0.08%    100.00% |           0      0.00%    100.00%
system.ruby.outstanding_req_hist::total     345627463                      
system.ruby.latency_hist::bucket_size            2048                      
system.ruby.latency_hist::max_bucket            20479                      
system.ruby.latency_hist::samples           345627462                      
system.ruby.latency_hist::mean               4.609164                      
system.ruby.latency_hist::gmean              1.020569                      
system.ruby.latency_hist::stdev            116.904877                      
system.ruby.latency_hist                 |   345346273     99.92%     99.92% |      178489      0.05%     99.97% |       80070      0.02%     99.99% |       22334      0.01%    100.00% |         284      0.00%    100.00% |          12      0.00%    100.00% |           0      0.00%    100.00% |           0      0.00%    100.00% |           0      0.00%    100.00% |           0      0.00%    100.00%
system.ruby.latency_hist::total             345627462                      
system.ruby.hit_latency_hist::bucket_size            1                      
system.ruby.hit_latency_hist::max_bucket            9                      
system.ruby.hit_latency_hist::samples       344173247                      
system.ruby.hit_latency_hist::mean                  1                      
system.ruby.hit_latency_hist::gmean                 1                      
system.ruby.hit_latency_hist             |           0      0.00%      0.00% |   344173247    100.00%    100.00% |           0      0.00%    100.00% |           0      0.00%    100.00% |           0      0.00%    100.00% |           0      0.00%    100.00% |           0      0.00%    100.00% |           0      0.00%    100.00% |           0      0.00%    100.00% |           0      0.00%    100.00%
system.ruby.hit_latency_hist::total         344173247                      
system.ruby.miss_latency_hist::bucket_size         2048                      
system.ruby.miss_latency_hist::max_bucket        20479                      
system.ruby.miss_latency_hist::samples        1454215                      
system.ruby.miss_latency_hist::mean        858.800388                      
system.ruby.miss_latency_hist::gmean       126.353714                      
system.ruby.miss_latency_hist::stdev      1586.030265                      
system.ruby.miss_latency_hist            |     1173026     80.66%     80.66% |      178489     12.27%     92.94% |       80070      5.51%     98.44% |       22334      1.54%     99.98% |         284      0.02%    100.00% |          12      0.00%    100.00% |           0      0.00%    100.00% |           0      0.00%    100.00% |           0      0.00%    100.00% |           0      0.00%    100.00%
system.ruby.miss_latency_hist::total          1454215                      
system.gpu.shader_mmu.numPagefaults                 0                       # Number of Pagefaults
system.gpu.shader_mmu.numPagewalks              45751                       # Number of Pagewalks
system.gpu.shader_mmu.totalRequests             45751                       # Total number of requests
system.gpu.shader_mmu.l2hits                        0                       # Hits in the shared L2
system.gpu.shader_mmu.prefetchHits                  0                       # Number of prefetch hits
system.gpu.shader_mmu.numPrefetches                 0                       # Number of prefetchs
system.gpu.shader_mmu.prefetchFaults                0                       # Number of faults caused by prefetches
system.gpu.shader_mmu.pagefaultLatency::samples            0                       # Latency to complete the pagefault
system.gpu.shader_mmu.pagefaultLatency::mean          nan                       # Latency to complete the pagefault
system.gpu.shader_mmu.pagefaultLatency::gmean          nan                       # Latency to complete the pagefault
system.gpu.shader_mmu.pagefaultLatency::stdev          nan                       # Latency to complete the pagefault
system.gpu.shader_mmu.pagefaultLatency::0            0                       # Latency to complete the pagefault
system.gpu.shader_mmu.pagefaultLatency::1            0                       # Latency to complete the pagefault
system.gpu.shader_mmu.pagefaultLatency::2            0                       # Latency to complete the pagefault
system.gpu.shader_mmu.pagefaultLatency::3            0                       # Latency to complete the pagefault
system.gpu.shader_mmu.pagefaultLatency::4            0                       # Latency to complete the pagefault
system.gpu.shader_mmu.pagefaultLatency::5            0                       # Latency to complete the pagefault
system.gpu.shader_mmu.pagefaultLatency::6            0                       # Latency to complete the pagefault
system.gpu.shader_mmu.pagefaultLatency::7            0                       # Latency to complete the pagefault
system.gpu.shader_mmu.pagefaultLatency::8            0                       # Latency to complete the pagefault
system.gpu.shader_mmu.pagefaultLatency::9            0                       # Latency to complete the pagefault
system.gpu.shader_mmu.pagefaultLatency::10            0                       # Latency to complete the pagefault
system.gpu.shader_mmu.pagefaultLatency::11            0                       # Latency to complete the pagefault
system.gpu.shader_mmu.pagefaultLatency::12            0                       # Latency to complete the pagefault
system.gpu.shader_mmu.pagefaultLatency::13            0                       # Latency to complete the pagefault
system.gpu.shader_mmu.pagefaultLatency::14            0                       # Latency to complete the pagefault
system.gpu.shader_mmu.pagefaultLatency::15            0                       # Latency to complete the pagefault
system.gpu.shader_mmu.pagefaultLatency::16            0                       # Latency to complete the pagefault
system.gpu.shader_mmu.pagefaultLatency::17            0                       # Latency to complete the pagefault
system.gpu.shader_mmu.pagefaultLatency::18            0                       # Latency to complete the pagefault
system.gpu.shader_mmu.pagefaultLatency::19            0                       # Latency to complete the pagefault
system.gpu.shader_mmu.pagefaultLatency::20            0                       # Latency to complete the pagefault
system.gpu.shader_mmu.pagefaultLatency::21            0                       # Latency to complete the pagefault
system.gpu.shader_mmu.pagefaultLatency::22            0                       # Latency to complete the pagefault
system.gpu.shader_mmu.pagefaultLatency::23            0                       # Latency to complete the pagefault
system.gpu.shader_mmu.pagefaultLatency::24            0                       # Latency to complete the pagefault
system.gpu.shader_mmu.pagefaultLatency::25            0                       # Latency to complete the pagefault
system.gpu.shader_mmu.pagefaultLatency::26            0                       # Latency to complete the pagefault
system.gpu.shader_mmu.pagefaultLatency::27            0                       # Latency to complete the pagefault
system.gpu.shader_mmu.pagefaultLatency::28            0                       # Latency to complete the pagefault
system.gpu.shader_mmu.pagefaultLatency::29            0                       # Latency to complete the pagefault
system.gpu.shader_mmu.pagefaultLatency::30            0                       # Latency to complete the pagefault
system.gpu.shader_mmu.pagefaultLatency::31            0                       # Latency to complete the pagefault
system.gpu.shader_mmu.pagefaultLatency::total            0                       # Latency to complete the pagefault
system.gpu.shader_mmu.concurrentWalks::samples        45751                       # Number of outstanding walks
system.gpu.shader_mmu.concurrentWalks::mean            0                       # Number of outstanding walks
system.gpu.shader_mmu.concurrentWalks::gmean            0                       # Number of outstanding walks
system.gpu.shader_mmu.concurrentWalks::stdev            0                       # Number of outstanding walks
system.gpu.shader_mmu.concurrentWalks::0        45751    100.00%    100.00% # Number of outstanding walks
system.gpu.shader_mmu.concurrentWalks::1            0      0.00%    100.00% # Number of outstanding walks
system.gpu.shader_mmu.concurrentWalks::2            0      0.00%    100.00% # Number of outstanding walks
system.gpu.shader_mmu.concurrentWalks::3            0      0.00%    100.00% # Number of outstanding walks
system.gpu.shader_mmu.concurrentWalks::4            0      0.00%    100.00% # Number of outstanding walks
system.gpu.shader_mmu.concurrentWalks::5            0      0.00%    100.00% # Number of outstanding walks
system.gpu.shader_mmu.concurrentWalks::6            0      0.00%    100.00% # Number of outstanding walks
system.gpu.shader_mmu.concurrentWalks::7            0      0.00%    100.00% # Number of outstanding walks
system.gpu.shader_mmu.concurrentWalks::8            0      0.00%    100.00% # Number of outstanding walks
system.gpu.shader_mmu.concurrentWalks::9            0      0.00%    100.00% # Number of outstanding walks
system.gpu.shader_mmu.concurrentWalks::10            0      0.00%    100.00% # Number of outstanding walks
system.gpu.shader_mmu.concurrentWalks::11            0      0.00%    100.00% # Number of outstanding walks
system.gpu.shader_mmu.concurrentWalks::12            0      0.00%    100.00% # Number of outstanding walks
system.gpu.shader_mmu.concurrentWalks::13            0      0.00%    100.00% # Number of outstanding walks
system.gpu.shader_mmu.concurrentWalks::14            0      0.00%    100.00% # Number of outstanding walks
system.gpu.shader_mmu.concurrentWalks::15            0      0.00%    100.00% # Number of outstanding walks
system.gpu.shader_mmu.concurrentWalks::total        45751                       # Number of outstanding walks
system.gpu.shader_mmu.pagewalkLatency::samples        45751                       # Latency to complete the pagewalk
system.gpu.shader_mmu.pagewalkLatency::mean            0                       # Latency to complete the pagewalk
system.gpu.shader_mmu.pagewalkLatency::gmean            0                       # Latency to complete the pagewalk
system.gpu.shader_mmu.pagewalkLatency::stdev            0                       # Latency to complete the pagewalk
system.gpu.shader_mmu.pagewalkLatency::0        45751    100.00%    100.00% # Latency to complete the pagewalk
system.gpu.shader_mmu.pagewalkLatency::1            0      0.00%    100.00% # Latency to complete the pagewalk
system.gpu.shader_mmu.pagewalkLatency::2            0      0.00%    100.00% # Latency to complete the pagewalk
system.gpu.shader_mmu.pagewalkLatency::3            0      0.00%    100.00% # Latency to complete the pagewalk
system.gpu.shader_mmu.pagewalkLatency::4            0      0.00%    100.00% # Latency to complete the pagewalk
system.gpu.shader_mmu.pagewalkLatency::5            0      0.00%    100.00% # Latency to complete the pagewalk
system.gpu.shader_mmu.pagewalkLatency::6            0      0.00%    100.00% # Latency to complete the pagewalk
system.gpu.shader_mmu.pagewalkLatency::7            0      0.00%    100.00% # Latency to complete the pagewalk
system.gpu.shader_mmu.pagewalkLatency::8            0      0.00%    100.00% # Latency to complete the pagewalk
system.gpu.shader_mmu.pagewalkLatency::9            0      0.00%    100.00% # Latency to complete the pagewalk
system.gpu.shader_mmu.pagewalkLatency::10            0      0.00%    100.00% # Latency to complete the pagewalk
system.gpu.shader_mmu.pagewalkLatency::11            0      0.00%    100.00% # Latency to complete the pagewalk
system.gpu.shader_mmu.pagewalkLatency::12            0      0.00%    100.00% # Latency to complete the pagewalk
system.gpu.shader_mmu.pagewalkLatency::13            0      0.00%    100.00% # Latency to complete the pagewalk
system.gpu.shader_mmu.pagewalkLatency::14            0      0.00%    100.00% # Latency to complete the pagewalk
system.gpu.shader_mmu.pagewalkLatency::15            0      0.00%    100.00% # Latency to complete the pagewalk
system.gpu.shader_mmu.pagewalkLatency::16            0      0.00%    100.00% # Latency to complete the pagewalk
system.gpu.shader_mmu.pagewalkLatency::17            0      0.00%    100.00% # Latency to complete the pagewalk
system.gpu.shader_mmu.pagewalkLatency::18            0      0.00%    100.00% # Latency to complete the pagewalk
system.gpu.shader_mmu.pagewalkLatency::19            0      0.00%    100.00% # Latency to complete the pagewalk
system.gpu.shader_mmu.pagewalkLatency::20            0      0.00%    100.00% # Latency to complete the pagewalk
system.gpu.shader_mmu.pagewalkLatency::21            0      0.00%    100.00% # Latency to complete the pagewalk
system.gpu.shader_mmu.pagewalkLatency::22            0      0.00%    100.00% # Latency to complete the pagewalk
system.gpu.shader_mmu.pagewalkLatency::23            0      0.00%    100.00% # Latency to complete the pagewalk
system.gpu.shader_mmu.pagewalkLatency::24            0      0.00%    100.00% # Latency to complete the pagewalk
system.gpu.shader_mmu.pagewalkLatency::25            0      0.00%    100.00% # Latency to complete the pagewalk
system.gpu.shader_mmu.pagewalkLatency::26            0      0.00%    100.00% # Latency to complete the pagewalk
system.gpu.shader_mmu.pagewalkLatency::27            0      0.00%    100.00% # Latency to complete the pagewalk
system.gpu.shader_mmu.pagewalkLatency::28            0      0.00%    100.00% # Latency to complete the pagewalk
system.gpu.shader_mmu.pagewalkLatency::29            0      0.00%    100.00% # Latency to complete the pagewalk
system.gpu.shader_mmu.pagewalkLatency::30            0      0.00%    100.00% # Latency to complete the pagewalk
system.gpu.shader_mmu.pagewalkLatency::31            0      0.00%    100.00% # Latency to complete the pagewalk
system.gpu.shader_mmu.pagewalkLatency::total        45751                       # Latency to complete the pagewalk
system.gpu.kernels_started                          2                       # Number of kernels started
system.gpu.kernels_completed                        2                       # Number of kernels completed
system.gpu.ce.device_dtb.hits                       0                       # Number of hits in this TLB
system.gpu.ce.device_dtb.misses                     0                       # Number of misses in this TLB
system.gpu.ce.device_dtb.hitRate                  nan                       # Hit rate for this TLB
system.gpu.ce.host_dtb.hits                     99666                       # Number of hits in this TLB
system.gpu.ce.host_dtb.misses                   45751                       # Number of misses in this TLB
system.gpu.ce.host_dtb.hitRate               0.685381                       # Hit rate for this TLB
system.gpu.ce.numOperations                         8                       # Number of copy/memset operations
system.gpu.ce.opBytesRead                    18612572                       # Number of copy bytes read
system.gpu.ce.opBytesWritten                 18612572                       # Number of copy/memset bytes written
system.gpu.ce.opTimeTicks                  6051453014                       # Total time spent in copy/memset operations
system.gpu.shader_cores0.itb.hits                   0                       # Number of hits in this TLB
system.gpu.shader_cores0.itb.misses                 0                       # Number of misses in this TLB
system.gpu.shader_cores0.itb.hitRate              nan                       # Hit rate for this TLB
system.gpu.shader_cores0.local_loads                0                       # Number of loads from local space
system.gpu.shader_cores0.local_stores               0                       # Number of stores to local space
system.gpu.shader_cores0.shared_loads         1032192                       # Number of loads from shared space
system.gpu.shader_cores0.shared_stores         786432                       # Number of stores to shared space
system.gpu.shader_cores0.param_kernel_loads      1866496                       # Number of loads from kernel parameter space
system.gpu.shader_cores0.param_local_loads            0                       # Number of loads from local parameter space
system.gpu.shader_cores0.param_local_stores            0                       # Number of stores to local parameter space
system.gpu.shader_cores0.const_loads                0                       # Number of loads from constant space
system.gpu.shader_cores0.tex_loads                  0                       # Number of loads from texture space
system.gpu.shader_cores0.global_loads         2111824                       # Number of loads from global space
system.gpu.shader_cores0.global_stores         540192                       # Number of stores to global space
system.gpu.shader_cores0.surf_loads                 0                       # Number of loads from surface space
system.gpu.shader_cores0.generic_loads              0                       # Number of loads from generic spaces (global, shared, local)
system.gpu.shader_cores0.generic_stores             0                       # Number of stores to generic spaces (global, shared, local)
system.gpu.shader_cores0.inst_cache_requests           13                       # Number of instruction cache requests sent
system.gpu.shader_cores0.inst_cache_retries            0                       # Number of instruction cache retries
system.gpu.shader_cores0.inst_counts::0             0                       # Inst counts: 1: ALU, 2: MAD, 3: CTRL, 4: SFU, 5: MEM, 6: TEX, 7: NOP
system.gpu.shader_cores0.inst_counts::1      33312512                       # Inst counts: 1: ALU, 2: MAD, 3: CTRL, 4: SFU, 5: MEM, 6: TEX, 7: NOP
system.gpu.shader_cores0.inst_counts::2        523808                       # Inst counts: 1: ALU, 2: MAD, 3: CTRL, 4: SFU, 5: MEM, 6: TEX, 7: NOP
system.gpu.shader_cores0.inst_counts::3       4963568                       # Inst counts: 1: ALU, 2: MAD, 3: CTRL, 4: SFU, 5: MEM, 6: TEX, 7: NOP
system.gpu.shader_cores0.inst_counts::4       1572864                       # Inst counts: 1: ALU, 2: MAD, 3: CTRL, 4: SFU, 5: MEM, 6: TEX, 7: NOP
system.gpu.shader_cores0.inst_counts::5       6337136                       # Inst counts: 1: ALU, 2: MAD, 3: CTRL, 4: SFU, 5: MEM, 6: TEX, 7: NOP
system.gpu.shader_cores0.inst_counts::6             0                       # Inst counts: 1: ALU, 2: MAD, 3: CTRL, 4: SFU, 5: MEM, 6: TEX, 7: NOP
system.gpu.shader_cores0.inst_counts::7             0                       # Inst counts: 1: ALU, 2: MAD, 3: CTRL, 4: SFU, 5: MEM, 6: TEX, 7: NOP
system.gpu.shader_cores0.activeCycles         2200931                       # Number of cycles this shader was executing a CTA
system.gpu.shader_cores0.notStalledCycles      1173331                       # Number of cycles this shader was actually executing at least one instance
system.gpu.shader_cores0.instInstances       46709888                       # Total instructions executed by all PEs in the core
system.gpu.shader_cores0.instPerCycle       21.222786                       # Instruction instances per cycle
system.gpu.shader_cores0.kernels_completed            2                       # Number of kernels completed
system.gpu.shader_cores0.lsq.data_tlb.hits            0                       # Number of hits in this TLB
system.gpu.shader_cores0.lsq.data_tlb.misses            0                       # Number of misses in this TLB
system.gpu.shader_cores0.lsq.data_tlb.hitRate          nan                       # Hit rate for this TLB
system.gpu.shader_cores0.lsq.warpInstBufActive::samples   3143644239                       # Histogram of number of active warp inst buffers at a given time
system.gpu.shader_cores0.lsq.warpInstBufActive::mean    18.674136                       # Histogram of number of active warp inst buffers at a given time
system.gpu.shader_cores0.lsq.warpInstBufActive::gmean          nan                       # Histogram of number of active warp inst buffers at a given time
system.gpu.shader_cores0.lsq.warpInstBufActive::stdev    17.234551                       # Histogram of number of active warp inst buffers at a given time
system.gpu.shader_cores0.lsq.warpInstBufActive::0    645306391     20.53%     20.53% # Histogram of number of active warp inst buffers at a given time
system.gpu.shader_cores0.lsq.warpInstBufActive::1    364410719     11.59%     32.12% # Histogram of number of active warp inst buffers at a given time
[...]
system.ruby.L1Cache_Controller.I.Store::total         6583                      
system.ruby.L1Cache_Controller.I.L1_Replacement |         691      0.74%      0.74% |           0      0.00%      0.74% |       23078     24.78%     25.52% |       23391     25.11%     50.63% |       23182     24.89%     75.52% |       22786     24.46%     99.98% |           0      0.00%     99.98% |          19      0.02%    100.00%
system.ruby.L1Cache_Controller.I.L1_Replacement::total        93147                      
system.ruby.L1Cache_Controller.S.Load    |           1      0.00%      0.00% |           0      0.00%      0.00% |       38718     24.95%     24.95% |       38184     24.61%     49.56% |       38804     25.01%     74.57% |       39452     25.43%    100.00% |           0      0.00%    100.00% |           0      0.00%    100.00%
system.ruby.L1Cache_Controller.S.Load::total       155159                      
system.ruby.L1Cache_Controller.S.Ifetch  |   263900156    100.00%    100.00% |           0      0.00%    100.00% |           0      0.00%    100.00% |           0      0.00%    100.00% |           0      0.00%    100.00% |           0      0.00%    100.00% |           0      0.00%    100.00% |           0      0.00%    100.00%
system.ruby.L1Cache_Controller.S.Ifetch::total    263900156                      
system.ruby.L1Cache_Controller.S.Store   |           1      0.01%      0.01% |           0      0.00%      0.01% |        1845     23.67%     23.68% |        1917     24.59%     48.27% |        2022     25.94%     74.20% |        2011     25.80%    100.00% |           0      0.00%    100.00% |           0      0.00%    100.00%
system.ruby.L1Cache_Controller.S.Store::total         7796                      
system.ruby.L1Cache_Controller.S.Inv     |        4298     17.15%     17.15% |           0      0.00%     17.15% |        5155     20.57%     37.72% |        5246     20.93%     58.66% |        5086     20.30%     78.95% |        5267     21.02%     99.97% |           0      0.00%     99.97% |           7      0.03%    100.00%
system.ruby.L1Cache_Controller.S.Inv::total        25059                      
system.ruby.L1Cache_Controller.S.L1_Replacement |      461655     98.75%     98.75% |           0      0.00%     98.75% |        1398      0.30%     99.05% |        1251      0.27%     99.31% |        1340      0.29%     99.60% |        1406      0.30%     99.90% |           0      0.00%     99.90% |         461      0.10%    100.00%
system.ruby.L1Cache_Controller.S.L1_Replacement::total       467511                      
system.ruby.L1Cache_Controller.E.Load    |    10589014     98.65%     98.65% |           0      0.00%     98.65% |       36164      0.34%     98.99% |       36502      0.34%     99.33% |       36264      0.34%     99.67% |       35942      0.33%    100.00% |           0      0.00%    100.00% |           0      0.00%    100.00%
system.ruby.L1Cache_Controller.E.Load::total     10733886                      
system.ruby.L1Cache_Controller.E.Store   |        2372      3.63%      3.63% |           0      0.00%      3.63% |       15812     24.23%     27.86% |       15691     24.04%     51.90% |       15664     24.00%     75.90% |       15729     24.10%    100.00% |           0      0.00%    100.00% |           0      0.00%    100.00%
system.ruby.L1Cache_Controller.E.Store::total        65268                      
system.ruby.L1Cache_Controller.E.Inv     |         978      4.80%      4.80% |           0      0.00%      4.80% |        4821     23.64%     28.44% |        4867     23.87%     52.30% |        4833     23.70%     76.00% |        4894     24.00%    100.00% |           0      0.00%    100.00% |           0      0.00%    100.00%
system.ruby.L1Cache_Controller.E.Inv::total        20393                      
system.ruby.L1Cache_Controller.E.L1_Replacement |      237327     60.34%     60.34% |           0      0.00%     60.34% |        2802      0.71%     61.05% |        2722      0.69%     61.74% |        2802      0.71%     62.45% |        2728      0.69%     63.15% |           0      0.00%     63.15% |      144964     36.85%    100.00%
system.ruby.L1Cache_Controller.E.L1_Replacement::total       393345                      
system.ruby.L1Cache_Controller.E.Fwd_GETX |           0      0.00%      0.00% |           0      0.00%      0.00% |         162     26.60%     26.60% |         146     23.97%     50.57% |         160     26.27%     76.85% |         141     23.15%    100.00% |           0      0.00%    100.00% |           0      0.00%    100.00%
system.ruby.L1Cache_Controller.E.Fwd_GETX::total          609                      
system.ruby.L1Cache_Controller.E.Fwd_GETS |           1      0.02%      0.02% |           0      0.00%      0.02% |        1449     25.55%     25.57% |        1346     23.73%     49.30% |        1399     24.67%     73.97% |        1476     26.03%    100.00% |           0      0.00%    100.00% |           0      0.00%    100.00%
system.ruby.L1Cache_Controller.E.Fwd_GETS::total         5671                      
system.ruby.L1Cache_Controller.M.Load    |    33593708     99.98%     99.98% |           0      0.00%     99.98% |        1285      0.00%     99.99% |        1545      0.00%     99.99% |        1426      0.00%    100.00% |        1173      0.00%    100.00% |           0      0.00%    100.00% |           0      0.00%    100.00%
system.ruby.L1Cache_Controller.M.Load::total     33599137                      
system.ruby.L1Cache_Controller.M.Store   |    35575229     99.60%     99.60% |           0      0.00%     99.60% |       36077      0.10%     99.70% |       36010      0.10%     99.80% |       36132      0.10%     99.90% |       36193      0.10%    100.00% |           0      0.00%    100.00% |           0      0.00%    100.00%
system.ruby.L1Cache_Controller.M.Store::total     35719641                      
system.ruby.L1Cache_Controller.M.Inv     |         906      1.71%      1.71% |           0      0.00%      1.71% |       13237     24.92%     26.62% |       13253     24.95%     51.57% |       13071     24.60%     76.17% |       12637     23.79%     99.96% |           0      0.00%     99.96% |          20      0.04%    100.00%
system.ruby.L1Cache_Controller.M.Inv::total        53124                      
system.ruby.L1Cache_Controller.M.L1_Replacement |      313656     65.65%     65.65% |           0      0.00%     65.65% |        4633      0.97%     66.62% |        4382      0.92%     67.54% |        4511      0.94%     68.48% |        5190      1.09%     69.57% |           0      0.00%     69.57% |      145380     30.43%    100.00%
system.ruby.L1Cache_Controller.M.L1_Replacement::total       477752                      
system.ruby.L1Cache_Controller.M.Fwd_GETX |           1      0.01%      0.01% |           0      0.00%      0.01% |        2040     24.23%     24.24% |        2055     24.40%     48.64% |        2183     25.92%     74.56% |        2142     25.44%    100.00% |           0      0.00%    100.00% |           0      0.00%    100.00%
system.ruby.L1Cache_Controller.M.Fwd_GETX::total         8421                      
system.ruby.L1Cache_Controller.M.Fwd_GETS |           2      0.16%      0.16% |           0      0.00%      0.16% |         300     24.73%     24.90% |         314     25.89%     50.78% |         281     23.17%     73.95% |         300     24.73%     98.68% |           0      0.00%     98.68% |          16      1.32%    100.00%
system.ruby.L1Cache_Controller.M.Fwd_GETS::total         1213                      
system.ruby.L1Cache_Controller.IS.L1_Replacement |           0      0.00%      0.00% |           0      0.00%      0.00% |           0      0.00%      0.00% |           0      0.00%      0.00% |           0      0.00%      0.00% |           0      0.00%      0.00% |           0      0.00%      0.00% |     2043646    100.00%    100.00%
system.ruby.L1Cache_Controller.IS.L1_Replacement::total      2043646                      
system.ruby.L1Cache_Controller.IS.Data_Exclusive |      240891     49.62%     49.62% |           0      0.00%     49.62% |       25046      5.16%     54.78% |       24772      5.10%     59.88% |       24858      5.12%     65.00% |       24968      5.14%     70.14% |           0      0.00%     70.14% |      144964     29.86%    100.00%
system.ruby.L1Cache_Controller.IS.Data_Exclusive::total       485499                      
system.ruby.L1Cache_Controller.IS.DataS_fromL1 |           1      0.01%      0.01% |           0      0.00%      0.01% |        1578     22.92%     22.94% |        1717     24.94%     47.88% |        1579     22.94%     70.82% |        1579     22.94%     93.75% |           0      0.00%     93.75% |         430      6.25%    100.00%
system.ruby.L1Cache_Controller.IS.DataS_fromL1::total         6884                      
system.ruby.L1Cache_Controller.IS.Data_all_Acks |      465813     95.76%     95.76% |           0      0.00%     95.76% |        5071      1.04%     96.80% |        5037      1.04%     97.83% |        5189      1.07%     98.90% |        5329      1.10%    100.00% |           0      0.00%    100.00% |          22      0.00%    100.00%
system.ruby.L1Cache_Controller.IS.Data_all_Acks::total       486461                      
system.ruby.L1Cache_Controller.IM.Inv    |           0      0.00%      0.00% |           0      0.00%      0.00% |           0      0.00%      0.00% |           1    100.00%    100.00% |           0      0.00%    100.00% |           0      0.00%    100.00% |           0      0.00%    100.00% |           0      0.00%    100.00%
system.ruby.L1Cache_Controller.IM.Inv::total            1                      
system.ruby.L1Cache_Controller.IM.L1_Replacement |           0      0.00%      0.00% |           0      0.00%      0.00% |           0      0.00%      0.00% |           0      0.00%      0.00% |           0      0.00%      0.00% |           0      0.00%      0.00% |           0      0.00%      0.00% |     2000139    100.00%    100.00%
system.ruby.L1Cache_Controller.IM.L1_Replacement::total      2000139                      
system.ruby.L1Cache_Controller.IM.Data   |           0      0.00%      0.00% |           0      0.00%      0.00% |           0      0.00%      0.00% |           0      0.00%      0.00% |           0      0.00%      0.00% |           0      0.00%      0.00% |           0      0.00%      0.00% |          60    100.00%    100.00%
system.ruby.L1Cache_Controller.IM.Data::total           60                      
system.ruby.L1Cache_Controller.IM.Data_all_Acks |      311980     66.69%     66.69% |           0      0.00%     66.69% |        2703      0.58%     67.27% |        2550      0.55%     67.81% |        2525      0.54%     68.35% |        2699      0.58%     68.93% |           0      0.00%     68.93% |      145356     31.07%    100.00%
system.ruby.L1Cache_Controller.IM.Data_all_Acks::total       467813                      
system.ruby.L1Cache_Controller.IM.Ack    |           0      0.00%      0.00% |           0      0.00%      0.00% |           0      0.00%      0.00% |           0      0.00%      0.00% |           0      0.00%      0.00% |           0      0.00%      0.00% |           0      0.00%      0.00% |          46    100.00%    100.00%
system.ruby.L1Cache_Controller.IM.Ack::total           46                      
system.ruby.L1Cache_Controller.SM.Inv    |           0      0.00%      0.00% |           0      0.00%      0.00% |          77     25.84%     25.84% |          62     20.81%     46.64% |          79     26.51%     73.15% |          80     26.85%    100.00% |           0      0.00%    100.00% |           0      0.00%    100.00%
system.ruby.L1Cache_Controller.SM.Inv::total          298                      
system.ruby.L1Cache_Controller.SM.L1_Replacement |           0      0.00%      0.00% |           0      0.00%      0.00% |           0      0.00%      0.00% |           0      0.00%      0.00% |           0      0.00%      0.00% |           0      0.00%      0.00% |           0      0.00%      0.00% |          14    100.00%    100.00%
system.ruby.L1Cache_Controller.SM.L1_Replacement::total           14                      
system.ruby.L1Cache_Controller.SM.Ack    |           4      0.05%      0.05% |           0      0.00%      0.05% |        1768     23.41%     23.46% |        1855     24.56%     48.02% |        1943     25.72%     73.75% |        1931     25.57%     99.31% |           0      0.00%     99.31% |          52      0.69%    100.00%
system.ruby.L1Cache_Controller.SM.Ack::total         7553                      
system.ruby.L1Cache_Controller.SM.Ack_all |           1      0.01%      0.01% |           0      0.00%      0.01% |        1768     23.39%     23.41% |        1855     24.54%     47.95% |        1943     25.71%     73.66% |        1931     25.55%     99.21% |           0      0.00%     99.21% |          60      0.79%    100.00%
system.ruby.L1Cache_Controller.SM.Ack_all::total         7558                      
system.ruby.L1Cache_Controller.M_I.Inv   |           0      0.00%      0.00% |           0      0.00%      0.00% |          29     28.71%     28.71% |          22     21.78%     50.50% |          23     22.77%     73.27% |          27     26.73%    100.00% |           0      0.00%    100.00% |           0      0.00%    100.00%
system.ruby.L1Cache_Controller.M_I.Inv::total          101                      
system.ruby.L1Cache_Controller.M_I.WB_Ack |      550983     63.26%     63.26% |           0      0.00%     63.26% |        7406      0.85%     64.11% |        7082      0.81%     64.92% |        7290      0.84%     65.76% |        7891      0.91%     66.67% |           0      0.00%     66.67% |      290344     33.33%    100.00%
system.ruby.L1Cache_Controller.M_I.WB_Ack::total       870996                      
system.ruby.L1Cache_Controller.SINK_WB_ACK.WB_Ack |           0      0.00%      0.00% |           0      0.00%      0.00% |          29     28.71%     28.71% |          22     21.78%     50.50% |          23     22.77%     73.27% |          27     26.73%    100.00% |           0      0.00%    100.00% |           0      0.00%    100.00%
system.ruby.L1Cache_Controller.SINK_WB_ACK.WB_Ack::total          101                      
system.ruby.L2Cache_Controller.L1_GET_INSTR       465861      0.00%      0.00%
system.ruby.L2Cache_Controller.L1_GETS         513059      0.00%      0.00%
system.ruby.L2Cache_Controller.L1_GETX         468164      0.00%      0.00%
system.ruby.L2Cache_Controller.L1_UPGRADE         7761      0.00%      0.00%
system.ruby.L2Cache_Controller.L1_PUTX         870996      0.00%      0.00%
system.ruby.L2Cache_Controller.L1_PUTX_old          159      0.00%      0.00%
system.ruby.L2Cache_Controller.L2_Replacement       408022      0.00%      0.00%
system.ruby.L2Cache_Controller.L2_Replacement_clean       403344      0.00%      0.00%
system.ruby.L2Cache_Controller.Mem_Data        812707      0.00%      0.00%
system.ruby.L2Cache_Controller.Mem_Ack         811366      0.00%      0.00%
system.ruby.L2Cache_Controller.WB_Data          54435      0.00%      0.00%
system.ruby.L2Cache_Controller.WB_Data_clean         5674      0.00%      0.00%
system.ruby.L2Cache_Controller.Ack              10991      0.00%      0.00%
system.ruby.L2Cache_Controller.Ack_all          33063      0.00%      0.00%
system.ruby.L2Cache_Controller.Unblock           6884      0.00%      0.00%
system.ruby.L2Cache_Controller.Exclusive_Unblock       960870      0.00%      0.00%
system.ruby.L2Cache_Controller.NP.L1_GET_INSTR         4201      0.00%      0.00%
system.ruby.L2Cache_Controller.NP.L1_GETS       417649      0.00%      0.00%
system.ruby.L2Cache_Controller.NP.L1_GETX       390857      0.00%      0.00%
system.ruby.L2Cache_Controller.NP.L1_PUTX_old           58      0.00%      0.00%
system.ruby.L2Cache_Controller.SS.L1_GET_INSTR       461629      0.00%      0.00%
system.ruby.L2Cache_Controller.SS.L1_GETS         1650      0.00%      0.00%
system.ruby.L2Cache_Controller.SS.L1_GETX           83      0.00%      0.00%
system.ruby.L2Cache_Controller.SS.L1_UPGRADE         7498      0.00%      0.00%
system.ruby.L2Cache_Controller.SS.L2_Replacement          430      0.00%      0.00%
system.ruby.L2Cache_Controller.SS.L2_Replacement_clean        12240      0.00%      0.00%
system.ruby.L2Cache_Controller.M.L1_GETS        76795      0.00%      0.00%
system.ruby.L2Cache_Controller.M.L1_GETX        67903      0.00%      0.00%
system.ruby.L2Cache_Controller.M.L2_Replacement       407107      0.00%      0.00%
system.ruby.L2Cache_Controller.M.L2_Replacement_clean       317971      0.00%      0.00%
system.ruby.L2Cache_Controller.MT.L1_GETS         6884      0.00%      0.00%
system.ruby.L2Cache_Controller.MT.L1_GETX         9030      0.00%      0.00%
system.ruby.L2Cache_Controller.MT.L1_PUTX       870996      0.00%      0.00%
system.ruby.L2Cache_Controller.MT.L2_Replacement          485      0.00%      0.00%
system.ruby.L2Cache_Controller.MT.L2_Replacement_clean        73133      0.00%      0.00%
system.ruby.L2Cache_Controller.M_I.L1_GETS            6      0.00%      0.00%
system.ruby.L2Cache_Controller.M_I.L1_PUTX_old           43      0.00%      0.00%
system.ruby.L2Cache_Controller.M_I.Mem_Ack       811366      0.00%      0.00%
system.ruby.L2Cache_Controller.MT_I.WB_Data          483      0.00%      0.00%
system.ruby.L2Cache_Controller.MT_I.Ack_all            2      0.00%      0.00%
system.ruby.L2Cache_Controller.MCT_I.L1_PUTX_old           58      0.00%      0.00%
system.ruby.L2Cache_Controller.MCT_I.WB_Data        52739      0.00%      0.00%
system.ruby.L2Cache_Controller.MCT_I.WB_Data_clean            3      0.00%      0.00%
system.ruby.L2Cache_Controller.MCT_I.Ack_all        20391      0.00%      0.00%
system.ruby.L2Cache_Controller.I_I.Ack          10561      0.00%      0.00%
system.ruby.L2Cache_Controller.I_I.Ack_all        12240      0.00%      0.00%
system.ruby.L2Cache_Controller.S_I.Ack            430      0.00%      0.00%
system.ruby.L2Cache_Controller.S_I.Ack_all          430      0.00%      0.00%
system.ruby.L2Cache_Controller.ISS.L1_GETS         8945      0.00%      0.00%
system.ruby.L2Cache_Controller.ISS.Mem_Data       408704      0.00%      0.00%
system.ruby.L2Cache_Controller.IS.L1_GET_INSTR           31      0.00%      0.00%
system.ruby.L2Cache_Controller.IS.L1_GETS         1060      0.00%      0.00%
system.ruby.L2Cache_Controller.IS.Mem_Data        13146      0.00%      0.00%
system.ruby.L2Cache_Controller.IM.L1_GETX          174      0.00%      0.00%
system.ruby.L2Cache_Controller.IM.Mem_Data       390857      0.00%      0.00%
system.ruby.L2Cache_Controller.SS_MB.L1_GETS            8      0.00%      0.00%
system.ruby.L2Cache_Controller.SS_MB.L1_GETX           87      0.00%      0.00%
system.ruby.L2Cache_Controller.SS_MB.L1_UPGRADE          263      0.00%      0.00%
system.ruby.L2Cache_Controller.SS_MB.Exclusive_Unblock         7581      0.00%      0.00%
system.ruby.L2Cache_Controller.MT_MB.L1_GETS           46      0.00%      0.00%
system.ruby.L2Cache_Controller.MT_MB.L1_GETX           30      0.00%      0.00%
system.ruby.L2Cache_Controller.MT_MB.Exclusive_Unblock       953289      0.00%      0.00%
system.ruby.L2Cache_Controller.MT_IIB.L1_GETS           16      0.00%      0.00%
system.ruby.L2Cache_Controller.MT_IIB.WB_Data          144      0.00%      0.00%
system.ruby.L2Cache_Controller.MT_IIB.WB_Data_clean          139      0.00%      0.00%
system.ruby.L2Cache_Controller.MT_IIB.Unblock         6601      0.00%      0.00%
system.ruby.L2Cache_Controller.MT_IB.WB_Data         1069      0.00%      0.00%
system.ruby.L2Cache_Controller.MT_IB.WB_Data_clean         5532      0.00%      0.00%
system.ruby.L2Cache_Controller.MT_SB.Unblock          283      0.00%      0.00%

---------- End Simulation Statistics   ----------
