
---------- Begin Simulation Statistics ----------
sim_seconds                                  0.003031                       # Number of seconds simulated
sim_ticks                                  3030599000                       # Number of ticks simulated
final_tick                                26500140000                       # Number of ticks from beginning of simulation (restored from checkpoints and never reset)
sim_freq                                 1000000000000                       # Frequency of simulated ticks
host_inst_rate                                 351644                       # Simulator instruction rate (inst/s)
host_op_rate                                   631342                       # Simulator op (including micro ops) rate (op/s)
host_tick_rate                               96881002                       # Simulator tick rate (ticks/s)
host_mem_usage                                1368436                       # Number of bytes of host memory used
host_seconds                                    31.31                       # Real time elapsed on the host
sim_insts                                    11000002                       # Number of instructions simulated
sim_ops                                      19749410                       # Number of ops (including micro ops) simulated
system.voltage_domain.voltage                       1                       # Voltage in Volts
system.clk_domain.clock                          1000                       # Clock period in ticks
system.mem_ctrls.bytes_read::ruby.dir_cntrl0      5807872                       # Number of bytes read from this memory
system.mem_ctrls.bytes_read::total            5807872                       # Number of bytes read from this memory
system.mem_ctrls.bytes_written::ruby.dir_cntrl0      2842880                       # Number of bytes written to this memory
system.mem_ctrls.bytes_written::total         2842880                       # Number of bytes written to this memory
system.mem_ctrls.num_reads::ruby.dir_cntrl0        45374                       # Number of read requests responded to by this memory
system.mem_ctrls.num_reads::total               45374                       # Number of read requests responded to by this memory
system.mem_ctrls.num_writes::ruby.dir_cntrl0        22210                       # Number of write requests responded to by this memory
system.mem_ctrls.num_writes::total              22210                       # Number of write requests responded to by this memory
system.mem_ctrls.bw_read::ruby.dir_cntrl0   1916410584                       # Total read bandwidth from this memory (bytes/s)
system.mem_ctrls.bw_read::total            1916410584                       # Total read bandwidth from this memory (bytes/s)
system.mem_ctrls.bw_write::ruby.dir_cntrl0    938058780                       # Write bandwidth from this memory (bytes/s)
system.mem_ctrls.bw_write::total            938058780                       # Write bandwidth from this memory (bytes/s)
system.mem_ctrls.bw_total::ruby.dir_cntrl0   2854469364                       # Total bandwidth to/from this memory (bytes/s)
system.mem_ctrls.bw_total::total           2854469364                       # Total bandwidth to/from this memory (bytes/s)
system.mem_ctrls.readReqs                       45374                       # Number of read requests accepted
system.mem_ctrls.writeReqs                      22210                       # Number of write requests accepted
system.mem_ctrls.readBursts                     90748                       # Number of DRAM read bursts, including those serviced by the write queue
system.mem_ctrls.writeBursts                    44420                       # Number of DRAM write bursts, including those merged in the write queue
system.mem_ctrls.bytesReadDRAM                5805888                       # Total number of bytes read from DRAM
system.mem_ctrls.bytesReadWrQ                    1984                       # Total number of bytes read from write queue
system.mem_ctrls.bytesWritten                 2841152                       # Total number of bytes written to DRAM
system.mem_ctrls.bytesReadSys                 5807872                       # Total read bytes from the system interface side
system.mem_ctrls.bytesWrittenSys              2842880                       # Total written bytes from the system interface side
system.mem_ctrls.servicedByWrQ                     31                       # Number of DRAM read bursts serviced by the write queue
system.mem_ctrls.mergedWrBursts                     0                       # Number of DRAM write bursts merged with an existing one
system.mem_ctrls.neitherReadNorWriteReqs            0                       # Number of requests that are neither read nor write
system.mem_ctrls.perBankRdBursts::0              5632                       # Per bank write bursts
system.mem_ctrls.perBankRdBursts::1              5536                       # Per bank write bursts
system.mem_ctrls.perBankRdBursts::2              5606                       # Per bank write bursts
system.mem_ctrls.perBankRdBursts::3              5776                       # Per bank write bursts
system.mem_ctrls.perBankRdBursts::4              5672                       # Per bank write bursts
system.mem_ctrls.perBankRdBursts::5              5689                       # Per bank write bursts
system.mem_ctrls.perBankRdBursts::6              5652                       # Per bank write bursts
system.mem_ctrls.perBankRdBursts::7              5588                       # Per bank write bursts
system.mem_ctrls.perBankRdBursts::8              5568                       # Per bank write bursts
system.mem_ctrls.perBankRdBursts::9              5586                       # Per bank write bursts
system.mem_ctrls.perBankRdBursts::10             5512                       # Per bank write bursts
system.mem_ctrls.perBankRdBursts::11             5594                       # Per bank write bursts
system.mem_ctrls.perBankRdBursts::12             5810                       # Per bank write bursts
system.mem_ctrls.perBankRdBursts::13             5808                       # Per bank write bursts
system.mem_ctrls.perBankRdBursts::14             5804                       # Per bank write bursts
system.mem_ctrls.perBankRdBursts::15             5884                       # Per bank write bursts
system.mem_ctrls.perBankWrBursts::0              2680                       # Per bank write bursts
system.mem_ctrls.perBankWrBursts::1              2664                       # Per bank write bursts
system.mem_ctrls.perBankWrBursts::2              2656                       # Per bank write bursts
system.mem_ctrls.perBankWrBursts::3              2696                       # Per bank write bursts
system.mem_ctrls.perBankWrBursts::4              2768                       # Per bank write bursts
system.mem_ctrls.perBankWrBursts::5              2838                       # Per bank write bursts
system.mem_ctrls.perBankWrBursts::6              2860                       # Per bank write bursts
system.mem_ctrls.perBankWrBursts::7              2818                       # Per bank write bursts
system.mem_ctrls.perBankWrBursts::8              2846                       # Per bank write bursts
system.mem_ctrls.perBankWrBursts::9              2906                       # Per bank write bursts
system.mem_ctrls.perBankWrBursts::10             2762                       # Per bank write bursts
system.mem_ctrls.perBankWrBursts::11             2686                       # Per bank write bursts
system.mem_ctrls.perBankWrBursts::12             2854                       # Per bank write bursts
system.mem_ctrls.perBankWrBursts::13             2821                       # Per bank write bursts
system.mem_ctrls.perBankWrBursts::14             2742                       # Per bank write bursts
system.mem_ctrls.perBankWrBursts::15             2796                       # Per bank write bursts
system.mem_ctrls.numRdRetry                     15366                       # Number of times read queue was full causing retry
system.mem_ctrls.numWrRetry                       310                       # Number of times write queue was full causing retry
system.mem_ctrls.totGap                    3031125500                       # Total gap between requests
system.mem_ctrls.readPktSize::0                     0                       # Read request sizes (log2)
system.mem_ctrls.readPktSize::1                     0                       # Read request sizes (log2)
system.mem_ctrls.readPktSize::2                     0                       # Read request sizes (log2)
system.mem_ctrls.readPktSize::3                     0                       # Read request sizes (log2)
system.mem_ctrls.readPktSize::4                     0                       # Read request sizes (log2)
system.mem_ctrls.readPktSize::5                     0                       # Read request sizes (log2)
system.mem_ctrls.readPktSize::6                 90748                       # Read request sizes (log2)
system.mem_ctrls.writePktSize::0                    0                       # Write request sizes (log2)
system.mem_ctrls.writePktSize::1                    0                       # Write request sizes (log2)
system.mem_ctrls.writePktSize::2                    0                       # Write request sizes (log2)
system.mem_ctrls.writePktSize::3                    0                       # Write request sizes (log2)
system.mem_ctrls.writePktSize::4                    0                       # Write request sizes (log2)
system.mem_ctrls.writePktSize::5                    0                       # Write request sizes (log2)
system.mem_ctrls.writePktSize::6                44420                       # Write request sizes (log2)
system.mem_ctrls.rdQLenPdf::0                    6908                       # What read queue length does an incoming req see
system.mem_ctrls.rdQLenPdf::1                    7234                       # What read queue length does an incoming req see
system.mem_ctrls.rdQLenPdf::2                    2505                       # What read queue length does an incoming req see
system.mem_ctrls.rdQLenPdf::3                    3446                       # What read queue length does an incoming req see
system.mem_ctrls.rdQLenPdf::4                    6259                       # What read queue length does an incoming req see
system.mem_ctrls.rdQLenPdf::5                    7222                       # What read queue length does an incoming req see
system.mem_ctrls.rdQLenPdf::6                    7930                       # What read queue length does an incoming req see
system.mem_ctrls.rdQLenPdf::7                    7404                       # What read queue length does an incoming req see
system.mem_ctrls.rdQLenPdf::8                    5745                       # What read queue length does an incoming req see
system.mem_ctrls.rdQLenPdf::9                    4885                       # What read queue length does an incoming req see
system.mem_ctrls.rdQLenPdf::10                   3831                       # What read queue length does an incoming req see
system.mem_ctrls.rdQLenPdf::11                   3455                       # What read queue length does an incoming req see
system.mem_ctrls.rdQLenPdf::12                   2653                       # What read queue length does an incoming req see
system.mem_ctrls.rdQLenPdf::13                   2256                       # What read queue length does an incoming req see
system.mem_ctrls.rdQLenPdf::14                   1315                       # What read queue length does an incoming req see
system.mem_ctrls.rdQLenPdf::15                   1255                       # What read queue length does an incoming req see
system.mem_ctrls.rdQLenPdf::16                     45                       # What read queue length does an incoming req see
system.mem_ctrls.rdQLenPdf::17                     48                       # What read queue length does an incoming req see
system.mem_ctrls.rdQLenPdf::18                     47                       # What read queue length does an incoming req see
system.mem_ctrls.rdQLenPdf::19                     38                       # What read queue length does an incoming req see
system.mem_ctrls.rdQLenPdf::20                     39                       # What read queue length does an incoming req see
system.mem_ctrls.rdQLenPdf::21                     49                       # What read queue length does an incoming req see
system.mem_ctrls.rdQLenPdf::22                     58                       # What read queue length does an incoming req see
system.mem_ctrls.rdQLenPdf::23                     63                       # What read queue length does an incoming req see
system.mem_ctrls.rdQLenPdf::24                     69                       # What read queue length does an incoming req see
system.mem_ctrls.rdQLenPdf::25                     69                       # What read queue length does an incoming req see
system.mem_ctrls.rdQLenPdf::26                     79                       # What read queue length does an incoming req see
system.mem_ctrls.rdQLenPdf::27                     86                       # What read queue length does an incoming req see
system.mem_ctrls.rdQLenPdf::28                     84                       # What read queue length does an incoming req see
system.mem_ctrls.rdQLenPdf::29                     90                       # What read queue length does an incoming req see
system.mem_ctrls.rdQLenPdf::30                   7792                       # What read queue length does an incoming req see
system.mem_ctrls.rdQLenPdf::31                   7758                       # What read queue length does an incoming req see
system.mem_ctrls.wrQLenPdf::0                       1                       # What write queue length does an incoming req see
system.mem_ctrls.wrQLenPdf::1                       1                       # What write queue length does an incoming req see
system.mem_ctrls.wrQLenPdf::2                       1                       # What write queue length does an incoming req see
system.mem_ctrls.wrQLenPdf::3                       1                       # What write queue length does an incoming req see
system.mem_ctrls.wrQLenPdf::4                       1                       # What write queue length does an incoming req see
system.mem_ctrls.wrQLenPdf::5                       1                       # What write queue length does an incoming req see
system.mem_ctrls.wrQLenPdf::6                       1                       # What write queue length does an incoming req see
system.mem_ctrls.wrQLenPdf::7                       1                       # What write queue length does an incoming req see
system.mem_ctrls.wrQLenPdf::8                       1                       # What write queue length does an incoming req see
system.mem_ctrls.wrQLenPdf::9                       1                       # What write queue length does an incoming req see
system.mem_ctrls.wrQLenPdf::10                      1                       # What write queue length does an incoming req see
system.mem_ctrls.wrQLenPdf::11                      1                       # What write queue length does an incoming req see
system.mem_ctrls.wrQLenPdf::12                      1                       # What write queue length does an incoming req see
system.mem_ctrls.wrQLenPdf::13                      1                       # What write queue length does an incoming req see
system.mem_ctrls.wrQLenPdf::14                      1                       # What write queue length does an incoming req see
system.mem_ctrls.wrQLenPdf::15                    113                       # What write queue length does an incoming req see
system.mem_ctrls.wrQLenPdf::16                    114                       # What write queue length does an incoming req see
system.mem_ctrls.wrQLenPdf::17                    482                       # What write queue length does an incoming req see
system.mem_ctrls.wrQLenPdf::18                    510                       # What write queue length does an incoming req see
system.mem_ctrls.wrQLenPdf::19                    691                       # What write queue length does an incoming req see
system.mem_ctrls.wrQLenPdf::20                    739                       # What write queue length does an incoming req see
system.mem_ctrls.wrQLenPdf::21                   1090                       # What write queue length does an incoming req see
system.mem_ctrls.wrQLenPdf::22                   1218                       # What write queue length does an incoming req see
system.mem_ctrls.wrQLenPdf::23                   1724                       # What write queue length does an incoming req see
system.mem_ctrls.wrQLenPdf::24                   1850                       # What write queue length does an incoming req see
system.mem_ctrls.wrQLenPdf::25                   2391                       # What write queue length does an incoming req see
system.mem_ctrls.wrQLenPdf::26                   2582                       # What write queue length does an incoming req see
system.mem_ctrls.wrQLenPdf::27                   3075                       # What write queue length does an incoming req see
system.mem_ctrls.wrQLenPdf::28                   3266                       # What write queue length does an incoming req see
system.mem_ctrls.wrQLenPdf::29                   3478                       # What write queue length does an incoming req see
system.mem_ctrls.wrQLenPdf::30                   3446                       # What write queue length does an incoming req see
system.mem_ctrls.wrQLenPdf::31                   3524                       # What write queue length does an incoming req see
system.mem_ctrls.wrQLenPdf::32                   3477                       # What write queue length does an incoming req see
system.mem_ctrls.wrQLenPdf::33                   1136                       # What write queue length does an incoming req see
system.mem_ctrls.wrQLenPdf::34                    666                       # What write queue length does an incoming req see
system.mem_ctrls.wrQLenPdf::35                    380                       # What write queue length does an incoming req see
system.mem_ctrls.wrQLenPdf::36                    266                       # What write queue length does an incoming req see
system.mem_ctrls.wrQLenPdf::37                    154                       # What write queue length does an incoming req see
system.mem_ctrls.wrQLenPdf::38                    125                       # What write queue length does an incoming req see
system.mem_ctrls.wrQLenPdf::39                     94                       # What write queue length does an incoming req see
system.mem_ctrls.wrQLenPdf::40                    122                       # What write queue length does an incoming req see
system.mem_ctrls.wrQLenPdf::41                    144                       # What write queue length does an incoming req see
system.mem_ctrls.wrQLenPdf::42                    164                       # What write queue length does an incoming req see
system.mem_ctrls.wrQLenPdf::43                    203                       # What write queue length does an incoming req see
system.mem_ctrls.wrQLenPdf::44                    239                       # What write queue length does an incoming req see
system.mem_ctrls.wrQLenPdf::45                    286                       # What write queue length does an incoming req see
system.mem_ctrls.wrQLenPdf::46                    330                       # What write queue length does an incoming req see
system.mem_ctrls.wrQLenPdf::47                    369                       # What write queue length does an incoming req see
system.mem_ctrls.wrQLenPdf::48                    402                       # What write queue length does an incoming req see
system.mem_ctrls.wrQLenPdf::49                    449                       # What write queue length does an incoming req see
system.mem_ctrls.wrQLenPdf::50                    498                       # What write queue length does an incoming req see
system.mem_ctrls.wrQLenPdf::51                    550                       # What write queue length does an incoming req see
system.mem_ctrls.wrQLenPdf::52                    570                       # What write queue length does an incoming req see
system.mem_ctrls.wrQLenPdf::53                    610                       # What write queue length does an incoming req see
system.mem_ctrls.wrQLenPdf::54                    693                       # What write queue length does an incoming req see
system.mem_ctrls.wrQLenPdf::55                    556                       # What write queue length does an incoming req see
system.mem_ctrls.wrQLenPdf::56                    412                       # What write queue length does an incoming req see
system.mem_ctrls.wrQLenPdf::57                    298                       # What write queue length does an incoming req see
system.mem_ctrls.wrQLenPdf::58                    202                       # What write queue length does an incoming req see
system.mem_ctrls.wrQLenPdf::59                    142                       # What write queue length does an incoming req see
system.mem_ctrls.wrQLenPdf::60                     91                       # What write queue length does an incoming req see
system.mem_ctrls.wrQLenPdf::61                     70                       # What write queue length does an incoming req see
system.mem_ctrls.wrQLenPdf::62                    220                       # What write queue length does an incoming req see
system.mem_ctrls.wrQLenPdf::63                    194                       # What write queue length does an incoming req see
system.mem_ctrls.bytesPerActivate::samples        15109                       # Bytes accessed per row activation
system.mem_ctrls.bytesPerActivate::mean    572.323251                       # Bytes accessed per row activation
system.mem_ctrls.bytesPerActivate::gmean   438.409687                       # Bytes accessed per row activation
system.mem_ctrls.bytesPerActivate::stdev   357.534798                       # Bytes accessed per row activation
system.mem_ctrls.bytesPerActivate::0-127          194      1.28%      1.28% # Bytes accessed per row activation
system.mem_ctrls.bytesPerActivate::128-255         2800     18.53%     19.82% # Bytes accessed per row activation
system.mem_ctrls.bytesPerActivate::256-383         2607     17.25%     37.07% # Bytes accessed per row activation
system.mem_ctrls.bytesPerActivate::384-511         1430      9.46%     46.54% # Bytes accessed per row activation
system.mem_ctrls.bytesPerActivate::512-639         1259      8.33%     54.87% # Bytes accessed per row activation
system.mem_ctrls.bytesPerActivate::640-767          870      5.76%     60.63% # Bytes accessed per row activation
system.mem_ctrls.bytesPerActivate::768-895          799      5.29%     65.91% # Bytes accessed per row activation
system.mem_ctrls.bytesPerActivate::896-1023          642      4.25%     70.16% # Bytes accessed per row activation
system.mem_ctrls.bytesPerActivate::1024-1151         4508     29.84%    100.00% # Bytes accessed per row activation
system.mem_ctrls.bytesPerActivate::total        15109                       # Bytes accessed per row activation
system.mem_ctrls.rdPerTurnAround::samples         2759                       # Reads before turning the bus around for writes
system.mem_ctrls.rdPerTurnAround::mean      32.876042                       # Reads before turning the bus around for writes
system.mem_ctrls.rdPerTurnAround::gmean     28.356413                       # Reads before turning the bus around for writes
system.mem_ctrls.rdPerTurnAround::stdev     26.660011                       # Reads before turning the bus around for writes
system.mem_ctrls.rdPerTurnAround::0-31           1537     55.71%     55.71% # Reads before turning the bus around for writes
system.mem_ctrls.rdPerTurnAround::32-63          1086     39.36%     95.07% # Reads before turning the bus around for writes
system.mem_ctrls.rdPerTurnAround::64-95           115      4.17%     99.24% # Reads before turning the bus around for writes
system.mem_ctrls.rdPerTurnAround::96-127           11      0.40%     99.64% # Reads before turning the bus around for writes
system.mem_ctrls.rdPerTurnAround::128-159            2      0.07%     99.71% # Reads before turning the bus around for writes
system.mem_ctrls.rdPerTurnAround::160-191            3      0.11%     99.82% # Reads before turning the bus around for writes
system.mem_ctrls.rdPerTurnAround::192-223            1      0.04%     99.86% # Reads before turning the bus around for writes
system.mem_ctrls.rdPerTurnAround::320-351            2      0.07%     99.93% # Reads before turning the bus around for writes
system.mem_ctrls.rdPerTurnAround::544-575            1      0.04%     99.96% # Reads before turning the bus around for writes
system.mem_ctrls.rdPerTurnAround::864-895            1      0.04%    100.00% # Reads before turning the bus around for writes
system.mem_ctrls.rdPerTurnAround::total          2759                       # Reads before turning the bus around for writes
system.mem_ctrls.wrPerTurnAround::samples         2759                       # Writes before turning the bus around for reads
system.mem_ctrls.wrPerTurnAround::mean      16.090250                       # Writes before turning the bus around for reads
system.mem_ctrls.wrPerTurnAround::gmean     16.084022                       # Writes before turning the bus around for reads
system.mem_ctrls.wrPerTurnAround::stdev      0.487155                       # Writes before turning the bus around for reads
system.mem_ctrls.wrPerTurnAround::16             2642     95.76%     95.76% # Writes before turning the bus around for reads
system.mem_ctrls.wrPerTurnAround::17                1      0.04%     95.80% # Writes before turning the bus around for reads
system.mem_ctrls.wrPerTurnAround::18              111      4.02%     99.82% # Writes before turning the bus around for reads
system.mem_ctrls.wrPerTurnAround::19                4      0.14%     99.96% # Writes before turning the bus around for reads
system.mem_ctrls.wrPerTurnAround::30                1      0.04%    100.00% # Writes before turning the bus around for reads
system.mem_ctrls.wrPerTurnAround::total          2759                       # Writes before turning the bus around for reads
system.mem_ctrls.totQLat                   8519988670                       # Total ticks spent queuing
system.mem_ctrls.totMemAccLat             10220932420                       # Total ticks spent from burst creation until serviced by the DRAM
system.mem_ctrls.totBusLat                  453585000                       # Total ticks spent in databus transfers
system.mem_ctrls.avgQLat                     93918.32                       # Average queueing delay per DRAM burst
system.mem_ctrls.avgBusLat                    5000.00                       # Average bus latency per DRAM burst
system.mem_ctrls.avgMemAccLat               112668.32                       # Average memory access latency per DRAM burst
system.mem_ctrls.avgRdBW                      1915.76                       # Average DRAM read bandwidth in MiByte/s
system.mem_ctrls.avgWrBW                       937.49                       # Average achieved write bandwidth in MiByte/s
system.mem_ctrls.avgRdBWSys                   1916.41                       # Average system read bandwidth in MiByte/s
system.mem_ctrls.avgWrBWSys                    938.06                       # Average system write bandwidth in MiByte/s
system.mem_ctrls.peakBW                      12800.00                       # Theoretical peak bandwidth in MiByte/s
system.mem_ctrls.busUtil                        22.29                       # Data bus utilization in percentage
system.mem_ctrls.busUtilRead                    14.97                       # Data bus utilization in percentage for reads
system.mem_ctrls.busUtilWrite                    7.32                       # Data bus utilization in percentage for writes
system.mem_ctrls.avgRdQLen                       5.26                       # Average read queue length when enqueuing
system.mem_ctrls.avgWrQLen                      27.71                       # Average write queue length when enqueuing
system.mem_ctrls.readRowHits                    80827                       # Number of row buffer hits during reads
system.mem_ctrls.writeRowHits                   39175                       # Number of row buffer hits during writes
system.mem_ctrls.readRowHitRate                 89.10                       # Row buffer hit rate for reads
system.mem_ctrls.writeRowHitRate                88.19                       # Row buffer hit rate for writes
system.mem_ctrls.avgGap                      44849.75                       # Average gap between requests
system.mem_ctrls.pageHitRate                    88.80                       # Row buffer hit rate, read and write combined
system.mem_ctrls_0.actEnergy                172768680                       # Energy for activate commands per rank (pJ)
system.mem_ctrls_0.preEnergy                 94268625                       # Energy for precharge commands per rank (pJ)
system.mem_ctrls_0.readEnergy               821004600                       # Energy for read commands per rank (pJ)
system.mem_ctrls_0.writeEnergy              332994240                       # Energy for write commands per rank (pJ)
system.mem_ctrls_0.refreshEnergy           1730629680                       # Energy for refresh commands per rank (pJ)
system.mem_ctrls_0.actBackEnergy          13219410645                       # Energy for active background per rank (pJ)
system.mem_ctrls_0.preBackEnergy           4302147000                       # Energy for precharge background per rank (pJ)
system.mem_ctrls_0.totalEnergy            20673223470                       # Total energy per rank (pJ)
system.mem_ctrls_0.averagePower            780.213831                       # Core power per rank (mW)
system.mem_ctrls_0.memoryStateTime::IDLE    581157250                       # Time in different power states
system.mem_ctrls_0.memoryStateTime::REF     101140000                       # Time in different power states
system.mem_ctrls_0.memoryStateTime::PRE_PDN            0                       # Time in different power states
system.mem_ctrls_0.memoryStateTime::ACT    2345221750                       # Time in different power states
system.mem_ctrls_0.memoryStateTime::ACT_PDN            0                       # Time in different power states
system.mem_ctrls_1.actEnergy                174023640                       # Energy for activate commands per rank (pJ)
system.mem_ctrls_1.preEnergy                 94953375                       # Energy for precharge commands per rank (pJ)
system.mem_ctrls_1.readEnergy               828414600                       # Energy for read commands per rank (pJ)
system.mem_ctrls_1.writeEnergy              341878320                       # Energy for write commands per rank (pJ)
system.mem_ctrls_1.refreshEnergy           1730629680                       # Energy for refresh commands per rank (pJ)
system.mem_ctrls_1.actBackEnergy          13157288910                       # Energy for active background per rank (pJ)
system.mem_ctrls_1.preBackEnergy           4356639750                       # Energy for precharge background per rank (pJ)
system.mem_ctrls_1.totalEnergy            20683828275                       # Total energy per rank (pJ)
system.mem_ctrls_1.averagePower            780.614059                       # Core power per rank (mW)
system.mem_ctrls_1.memoryStateTime::IDLE    553335752                       # Time in different power states
system.mem_ctrls_1.memoryStateTime::REF     101140000                       # Time in different power states
system.mem_ctrls_1.memoryStateTime::PRE_PDN            0                       # Time in different power states
system.mem_ctrls_1.memoryStateTime::ACT    2375149248                       # Time in different power states
system.mem_ctrls_1.memoryStateTime::ACT_PDN            0                       # Time in different power states
system.ruby_clk_domain.clock                      500                       # Clock period in ticks
system.ruby.phys_mem.bytes_read::gpu.ce       1952272                       # Number of bytes read from this memory
system.ruby.phys_mem.bytes_read::gpu.shader_cores0.data       341216                       # Number of bytes read from this memory
system.ruby.phys_mem.bytes_read::gpu.shader_cores0.inst          160                       # Number of bytes read from this memory
system.ruby.phys_mem.bytes_read::gpu.shader_cores1.data       346880                       # Number of bytes read from this memory
system.ruby.phys_mem.bytes_read::gpu.shader_cores1.inst          160                       # Number of bytes read from this memory
system.ruby.phys_mem.bytes_read::gpu.shader_cores2.data       317408                       # Number of bytes read from this memory
system.ruby.phys_mem.bytes_read::gpu.shader_cores2.inst          160                       # Number of bytes read from this memory
system.ruby.phys_mem.bytes_read::gpu.shader_cores3.data       345216                       # Number of bytes read from this memory
system.ruby.phys_mem.bytes_read::gpu.shader_cores3.inst          160                       # Number of bytes read from this memory
system.ruby.phys_mem.bytes_read::switch_cpus0.inst     10014608                       # Number of bytes read from this memory
system.ruby.phys_mem.bytes_read::switch_cpus0.data       253171                       # Number of bytes read from this memory
system.ruby.phys_mem.bytes_read::total       13571411                       # Number of bytes read from this memory
system.ruby.phys_mem.bytes_inst_read::gpu.shader_cores0.inst          160                       # Number of instructions bytes read from this memory
system.ruby.phys_mem.bytes_inst_read::gpu.shader_cores1.inst          160                       # Number of instructions bytes read from this memory
system.ruby.phys_mem.bytes_inst_read::gpu.shader_cores2.inst          160                       # Number of instructions bytes read from this memory
system.ruby.phys_mem.bytes_inst_read::gpu.shader_cores3.inst          160                       # Number of instructions bytes read from this memory
system.ruby.phys_mem.bytes_inst_read::switch_cpus0.inst     10014608                       # Number of instructions bytes read from this memory
system.ruby.phys_mem.bytes_inst_read::total     10015248                       # Number of instructions bytes read from this memory
system.ruby.phys_mem.bytes_written::gpu.ce      1952272                       # Number of bytes written to this memory
system.ruby.phys_mem.bytes_written::gpu.shader_cores0.data       135356                       # Number of bytes written to this memory
system.ruby.phys_mem.bytes_written::gpu.shader_cores1.data       135356                       # Number of bytes written to this memory
system.ruby.phys_mem.bytes_written::gpu.shader_cores2.data       124944                       # Number of bytes written to this memory
system.ruby.phys_mem.bytes_written::gpu.shader_cores3.data       135356                       # Number of bytes written to this memory
system.ruby.phys_mem.bytes_written::switch_cpus0.data       454126                       # Number of bytes written to this memory
system.ruby.phys_mem.bytes_written::total      2937410                       # Number of bytes written to this memory
system.ruby.phys_mem.num_reads::gpu.ce          15254                       # Number of read requests responded to by this memory
system.ruby.phys_mem.num_reads::gpu.shader_cores0.data         6995                       # Number of read requests responded to by this memory
system.ruby.phys_mem.num_reads::gpu.shader_cores0.inst           10                       # Number of read requests responded to by this memory
system.ruby.phys_mem.num_reads::gpu.shader_cores1.data         7026                       # Number of read requests responded to by this memory
system.ruby.phys_mem.num_reads::gpu.shader_cores1.inst           10                       # Number of read requests responded to by this memory
system.ruby.phys_mem.num_reads::gpu.shader_cores2.data         6468                       # Number of read requests responded to by this memory
system.ruby.phys_mem.num_reads::gpu.shader_cores2.inst           10                       # Number of read requests responded to by this memory
system.ruby.phys_mem.num_reads::gpu.shader_cores3.data         7012                       # Number of read requests responded to by this memory
system.ruby.phys_mem.num_reads::gpu.shader_cores3.inst           10                       # Number of read requests responded to by this memory
system.ruby.phys_mem.num_reads::switch_cpus0.inst      1251826                       # Number of read requests responded to by this memory
system.ruby.phys_mem.num_reads::switch_cpus0.data       113585                       # Number of read requests responded to by this memory
system.ruby.phys_mem.num_reads::total         1408206                       # Number of read requests responded to by this memory
system.ruby.phys_mem.num_writes::gpu.ce         15253                       # Number of write requests responded to by this memory
system.ruby.phys_mem.num_writes::gpu.shader_cores0.data         2149                       # Number of write requests responded to by this memory
system.ruby.phys_mem.num_writes::gpu.shader_cores1.data         2068                       # Number of write requests responded to by this memory
system.ruby.phys_mem.num_writes::gpu.shader_cores2.data         1900                       # Number of write requests responded to by this memory
system.ruby.phys_mem.num_writes::gpu.shader_cores3.data         2149                       # Number of write requests responded to by this memory
system.ruby.phys_mem.num_writes::switch_cpus0.data       112487                       # Number of write requests responded to by this memory
system.ruby.phys_mem.num_writes::total         136006                       # Number of write requests responded to by this memory
system.ruby.phys_mem.bw_read::gpu.ce        644186842                       # Total read bandwidth from this memory (bytes/s)
system.ruby.phys_mem.bw_read::gpu.shader_cores0.data    112590283                       # Total read bandwidth from this memory (bytes/s)
system.ruby.phys_mem.bw_read::gpu.shader_cores0.inst        52795                       # Total read bandwidth from this memory (bytes/s)
system.ruby.phys_mem.bw_read::gpu.shader_cores1.data    114459221                       # Total read bandwidth from this memory (bytes/s)
system.ruby.phys_mem.bw_read::gpu.shader_cores1.inst        52795                       # Total read bandwidth from this memory (bytes/s)
system.ruby.phys_mem.bw_read::gpu.shader_cores2.data    104734411                       # Total read bandwidth from this memory (bytes/s)
system.ruby.phys_mem.bw_read::gpu.shader_cores2.inst        52795                       # Total read bandwidth from this memory (bytes/s)
system.ruby.phys_mem.bw_read::gpu.shader_cores3.data    113910154                       # Total read bandwidth from this memory (bytes/s)
system.ruby.phys_mem.bw_read::gpu.shader_cores3.inst        52795                       # Total read bandwidth from this memory (bytes/s)
system.ruby.phys_mem.bw_read::switch_cpus0.inst   3304497890                       # Total read bandwidth from this memory (bytes/s)
system.ruby.phys_mem.bw_read::switch_cpus0.data     83538271                       # Total read bandwidth from this memory (bytes/s)
system.ruby.phys_mem.bw_read::total        4478128251                       # Total read bandwidth from this memory (bytes/s)
system.ruby.phys_mem.bw_inst_read::gpu.shader_cores0.inst        52795                       # Instruction read bandwidth from this memory (bytes/s)
system.ruby.phys_mem.bw_inst_read::gpu.shader_cores1.inst        52795                       # Instruction read bandwidth from this memory (bytes/s)
system.ruby.phys_mem.bw_inst_read::gpu.shader_cores2.inst        52795                       # Instruction read bandwidth from this memory (bytes/s)
system.ruby.phys_mem.bw_inst_read::gpu.shader_cores3.inst        52795                       # Instruction read bandwidth from this memory (bytes/s)
system.ruby.phys_mem.bw_inst_read::switch_cpus0.inst   3304497890                       # Instruction read bandwidth from this memory (bytes/s)
system.ruby.phys_mem.bw_inst_read::total   3304709069                       # Instruction read bandwidth from this memory (bytes/s)
system.ruby.phys_mem.bw_write::gpu.ce       644186842                       # Write bandwidth from this memory (bytes/s)
system.ruby.phys_mem.bw_write::gpu.shader_cores0.data     44663118                       # Write bandwidth from this memory (bytes/s)
system.ruby.phys_mem.bw_write::gpu.shader_cores1.data     44663118                       # Write bandwidth from this memory (bytes/s)
system.ruby.phys_mem.bw_write::gpu.shader_cores2.data     41227493                       # Write bandwidth from this memory (bytes/s)
system.ruby.phys_mem.bw_write::gpu.shader_cores3.data     44663118                       # Write bandwidth from this memory (bytes/s)
system.ruby.phys_mem.bw_write::switch_cpus0.data    149846944                       # Write bandwidth from this memory (bytes/s)
system.ruby.phys_mem.bw_write::total        969250633                       # Write bandwidth from this memory (bytes/s)
system.ruby.phys_mem.bw_total::gpu.ce      1288373685                       # Total bandwidth to/from this memory (bytes/s)
system.ruby.phys_mem.bw_total::gpu.shader_cores0.data    157253401                       # Total bandwidth to/from this memory (bytes/s)
system.ruby.phys_mem.bw_total::gpu.shader_cores0.inst        52795                       # Total bandwidth to/from this memory (bytes/s)
system.ruby.phys_mem.bw_total::gpu.shader_cores1.data    159122339                       # Total bandwidth to/from this memory (bytes/s)
system.ruby.phys_mem.bw_total::gpu.shader_cores1.inst        52795                       # Total bandwidth to/from this memory (bytes/s)
system.ruby.phys_mem.bw_total::gpu.shader_cores2.data    145961904                       # Total bandwidth to/from this memory (bytes/s)
system.ruby.phys_mem.bw_total::gpu.shader_cores2.inst        52795                       # Total bandwidth to/from this memory (bytes/s)
system.ruby.phys_mem.bw_total::gpu.shader_cores3.data    158573272                       # Total bandwidth to/from this memory (bytes/s)
system.ruby.phys_mem.bw_total::gpu.shader_cores3.inst        52795                       # Total bandwidth to/from this memory (bytes/s)
system.ruby.phys_mem.bw_total::switch_cpus0.inst   3304497890                       # Total bandwidth to/from this memory (bytes/s)
system.ruby.phys_mem.bw_total::switch_cpus0.data    233385215                       # Total bandwidth to/from this memory (bytes/s)
system.ruby.phys_mem.bw_total::total       5447378885                       # Total bandwidth to/from this memory (bytes/s)
system.cpu_voltage_domain.voltage                   1                       # Voltage in Volts
system.cpu_clk_domain.clock                       500                       # Clock period in ticks
system.cpu0.apic_clk_domain.clock                8000                       # Clock period in ticks
system.cpu0.workload.num_syscalls                   8                       # Number of system calls
system.cpu0.numCycles                               0                       # number of cpu cycles simulated
system.cpu0.numWorkItemsStarted                     0                       # number of work items this cpu started
system.cpu0.numWorkItemsCompleted                   0                       # number of work items this cpu completed
system.cpu0.committedInsts                          0                       # Number of instructions committed
system.cpu0.committedOps                            0                       # Number of ops (including micro ops) committed
system.cpu0.num_int_alu_accesses                    0                       # Number of integer alu accesses
system.cpu0.num_fp_alu_accesses                     0                       # Number of float alu accesses
system.cpu0.num_func_calls                          0                       # number of times a function call or return occured
system.cpu0.num_conditional_control_insts            0                       # number of instructions that are conditional controls
system.cpu0.num_int_insts                           0                       # number of integer instructions
system.cpu0.num_fp_insts                            0                       # number of float instructions
system.cpu0.num_int_register_reads                  0                       # number of times the integer registers were read
system.cpu0.num_int_register_writes                 0                       # number of times the integer registers were written
system.cpu0.num_fp_register_reads                   0                       # number of times the floating registers were read
system.cpu0.num_fp_register_writes                  0                       # number of times the floating registers were written
system.cpu0.num_mem_refs                            0                       # number of memory refs
system.cpu0.num_load_insts                          0                       # Number of load instructions
system.cpu0.num_store_insts                         0                       # Number of store instructions
system.cpu0.num_idle_cycles                         0                       # Number of idle cycles
system.cpu0.num_busy_cycles                         0                       # Number of busy cycles
system.cpu0.not_idle_fraction                       1                       # Percentage of non-idle cycles
system.cpu0.idle_fraction                           0                       # Percentage of idle cycles
system.cpu0.op_class::No_OpClass                    0                       # Class of executed instruction
system.cpu0.op_class::IntAlu                        0                       # Class of executed instruction
system.cpu0.op_class::IntMult                       0                       # Class of executed instruction
system.cpu0.op_class::IntDiv                        0                       # Class of executed instruction
system.cpu0.op_class::FloatAdd                      0                       # Class of executed instruction
system.cpu0.op_class::FloatCmp                      0                       # Class of executed instruction
system.cpu0.op_class::FloatCvt                      0                       # Class of executed instruction
system.cpu0.op_class::FloatMult                     0                       # Class of executed instruction
system.cpu0.op_class::FloatDiv                      0                       # Class of executed instruction
system.cpu0.op_class::FloatSqrt                     0                       # Class of executed instruction
system.cpu0.op_class::SimdAdd                       0                       # Class of executed instruction
system.cpu0.op_class::SimdAddAcc                    0                       # Class of executed instruction
system.cpu0.op_class::SimdAlu                       0                       # Class of executed instruction
system.cpu0.op_class::SimdCmp                       0                       # Class of executed instruction
system.cpu0.op_class::SimdCvt                       0                       # Class of executed instruction
system.cpu0.op_class::SimdMisc                      0                       # Class of executed instruction
system.cpu0.op_class::SimdMult                      0                       # Class of executed instruction
system.cpu0.op_class::SimdMultAcc                   0                       # Class of executed instruction
system.cpu0.op_class::SimdShift                     0                       # Class of executed instruction
system.cpu0.op_class::SimdShiftAcc                  0                       # Class of executed instruction
system.cpu0.op_class::SimdSqrt                      0                       # Class of executed instruction
system.cpu0.op_class::SimdFloatAdd                  0                       # Class of executed instruction
system.cpu0.op_class::SimdFloatAlu                  0                       # Class of executed instruction
system.cpu0.op_class::SimdFloatCmp                  0                       # Class of executed instruction
system.cpu0.op_class::SimdFloatCvt                  0                       # Class of executed instruction
system.cpu0.op_class::SimdFloatDiv                  0                       # Class of executed instruction
system.cpu0.op_class::SimdFloatMisc                 0                       # Class of executed instruction
system.cpu0.op_class::SimdFloatMult                 0                       # Class of executed instruction
system.cpu0.op_class::SimdFloatMultAcc              0                       # Class of executed instruction
system.cpu0.op_class::SimdFloatSqrt                 0                       # Class of executed instruction
system.cpu0.op_class::MemRead                       0                       # Class of executed instruction
system.cpu0.op_class::MemWrite                      0                       # Class of executed instruction
system.cpu0.op_class::IprAccess                     0                       # Class of executed instruction
system.cpu0.op_class::InstPrefetch                  0                       # Class of executed instruction
system.cpu0.op_class::total                         0                       # Class of executed instruction
system.cpu1.apic_clk_domain.clock                8000                       # Clock period in ticks
system.cpu1.numCycles                               0                       # number of cpu cycles simulated
system.cpu1.numWorkItemsStarted                     0                       # number of work items this cpu started
system.cpu1.numWorkItemsCompleted                   0                       # number of work items this cpu completed
system.cpu1.committedInsts                          0                       # Number of instructions committed
system.cpu1.committedOps                            0                       # Number of ops (including micro ops) committed
system.cpu1.num_int_alu_accesses                    0                       # Number of integer alu accesses
system.cpu1.num_fp_alu_accesses                     0                       # Number of float alu accesses
system.cpu1.num_func_calls                          0                       # number of times a function call or return occured
system.cpu1.num_conditional_control_insts            0                       # number of instructions that are conditional controls
system.cpu1.num_int_insts                           0                       # number of integer instructions
system.cpu1.num_fp_insts                            0                       # number of float instructions
system.cpu1.num_int_register_reads                  0                       # number of times the integer registers were read
system.cpu1.num_int_register_writes                 0                       # number of times the integer registers were written
system.cpu1.num_fp_register_reads                   0                       # number of times the floating registers were read
system.cpu1.num_fp_register_writes                  0                       # number of times the floating registers were written
system.cpu1.num_mem_refs                            0                       # number of memory refs
system.cpu1.num_load_insts                          0                       # Number of load instructions
system.cpu1.num_store_insts                         0                       # Number of store instructions
system.cpu1.num_idle_cycles                         0                       # Number of idle cycles
system.cpu1.num_busy_cycles                         0                       # Number of busy cycles
system.cpu1.not_idle_fraction                       0                       # Percentage of non-idle cycles
system.cpu1.idle_fraction                           1                       # Percentage of idle cycles
system.cpu1.op_class::No_OpClass                    0                       # Class of executed instruction
system.cpu1.op_class::IntAlu                        0                       # Class of executed instruction
system.cpu1.op_class::IntMult                       0                       # Class of executed instruction
system.cpu1.op_class::IntDiv                        0                       # Class of executed instruction
system.cpu1.op_class::FloatAdd                      0                       # Class of executed instruction
system.cpu1.op_class::FloatCmp                      0                       # Class of executed instruction
system.cpu1.op_class::FloatCvt                      0                       # Class of executed instruction
system.cpu1.op_class::FloatMult                     0                       # Class of executed instruction
system.cpu1.op_class::FloatDiv                      0                       # Class of executed instruction
system.cpu1.op_class::FloatSqrt                     0                       # Class of executed instruction
system.cpu1.op_class::SimdAdd                       0                       # Class of executed instruction
system.cpu1.op_class::SimdAddAcc                    0                       # Class of executed instruction
system.cpu1.op_class::SimdAlu                       0                       # Class of executed instruction
system.cpu1.op_class::SimdCmp                       0                       # Class of executed instruction
system.cpu1.op_class::SimdCvt                       0                       # Class of executed instruction
system.cpu1.op_class::SimdMisc                      0                       # Class of executed instruction
system.cpu1.op_class::SimdMult                      0                       # Class of executed instruction
system.cpu1.op_class::SimdMultAcc                   0                       # Class of executed instruction
system.cpu1.op_class::SimdShift                     0                       # Class of executed instruction
system.cpu1.op_class::SimdShiftAcc                  0                       # Class of executed instruction
system.cpu1.op_class::SimdSqrt                      0                       # Class of executed instruction
system.cpu1.op_class::SimdFloatAdd                  0                       # Class of executed instruction
system.cpu1.op_class::SimdFloatAlu                  0                       # Class of executed instruction
system.cpu1.op_class::SimdFloatCmp                  0                       # Class of executed instruction
system.cpu1.op_class::SimdFloatCvt                  0                       # Class of executed instruction
system.cpu1.op_class::SimdFloatDiv                  0                       # Class of executed instruction
system.cpu1.op_class::SimdFloatMisc                 0                       # Class of executed instruction
system.cpu1.op_class::SimdFloatMult                 0                       # Class of executed instruction
system.cpu1.op_class::SimdFloatMultAcc              0                       # Class of executed instruction
system.cpu1.op_class::SimdFloatSqrt                 0                       # Class of executed instruction
system.cpu1.op_class::MemRead                       0                       # Class of executed instruction
system.cpu1.op_class::MemWrite                      0                       # Class of executed instruction
system.cpu1.op_class::IprAccess                     0                       # Class of executed instruction
system.cpu1.op_class::InstPrefetch                  0                       # Class of executed instruction
system.cpu1.op_class::total                         0                       # Class of executed instruction
system.gpu.clk_domain.voltage_domain.voltage            1                       # Voltage in Volts
system.gpu.clk_domain.clock                      1429                       # Clock period in ticks
system.gpu.dram_wrapper.clk_domain.clock          541                       # Clock period in ticks
system.gpu.icnt_wrapper.clk_domain.clock         2858                       # Clock period in ticks
system.ruby.delayHist::bucket_size                256                       # delay histogram for all message
system.ruby.delayHist::max_bucket                2559                       # delay histogram for all message
system.ruby.delayHist::samples                 537324                       # delay histogram for all message
system.ruby.delayHist::mean                  3.859876                       # delay histogram for all message
system.ruby.delayHist::stdev                20.250322                       # delay histogram for all message
system.ruby.delayHist                    |      536985     99.94%     99.94% |         203      0.04%     99.97% |          60      0.01%     99.99% |          31      0.01%     99.99% |          34      0.01%    100.00% |          11      0.00%    100.00% |           0      0.00%    100.00% |           0      0.00%    100.00% |           0      0.00%    100.00% |           0      0.00%    100.00% # delay histogram for all message
system.ruby.delayHist::total                   537324                       # delay histogram for all message
system.ruby.outstanding_req_hist::bucket_size            8                      
system.ruby.outstanding_req_hist::max_bucket           79                      
system.ruby.outstanding_req_hist::samples      1544213                      
system.ruby.outstanding_req_hist::mean       2.545076                      
system.ruby.outstanding_req_hist::gmean      1.140969                      
system.ruby.outstanding_req_hist::stdev      9.054005                      
system.ruby.outstanding_req_hist         |     1490154     96.50%     96.50% |        4354      0.28%     96.78% |       12845      0.83%     97.61% |        6066      0.39%     98.01% |         328      0.02%     98.03% |           8      0.00%     98.03% |           8      0.00%     98.03% |           9      0.00%     98.03% |       30441      1.97%    100.00% |           0      0.00%    100.00%
system.ruby.outstanding_req_hist::total       1544213                      
system.ruby.latency_hist::bucket_size            1024                      
system.ruby.latency_hist::max_bucket            10239                      
system.ruby.latency_hist::samples             1544212                      
system.ruby.latency_hist::mean              63.570644                      
system.ruby.latency_hist::gmean              1.336156                      
system.ruby.latency_hist::stdev            470.848079                      
system.ruby.latency_hist                 |     1519008     98.37%     98.37% |        3956      0.26%     98.62% |        5804      0.38%     99.00% |        5909      0.38%     99.38% |        7412      0.48%     99.86% |        2106      0.14%    100.00% |          17      0.00%    100.00% |           0      0.00%    100.00% |           0      0.00%    100.00% |           0      0.00%    100.00%
system.ruby.latency_hist::total               1544212                      
system.ruby.hit_latency_hist::bucket_size            1                      
system.ruby.hit_latency_hist::max_bucket            9                      
system.ruby.hit_latency_hist::samples         1455188                      
system.ruby.hit_latency_hist::mean                  1                      
system.ruby.hit_latency_hist::gmean                 1                      
system.ruby.hit_latency_hist             |           0      0.00%      0.00% |     1455188    100.00%    100.00% |           0      0.00%    100.00% |           0      0.00%    100.00% |           0      0.00%    100.00% |           0      0.00%    100.00% |           0      0.00%    100.00% |           0      0.00%    100.00% |           0      0.00%    100.00% |           0      0.00%    100.00%
system.ruby.hit_latency_hist::total           1455188                      
system.ruby.miss_latency_hist::bucket_size         1024                      
system.ruby.miss_latency_hist::max_bucket        10239                      
system.ruby.miss_latency_hist::samples          89024                      
system.ruby.miss_latency_hist::mean       1086.351591                      
system.ruby.miss_latency_hist::gmean       152.448614                      
system.ruby.miss_latency_hist::stdev      1653.943027                      
system.ruby.miss_latency_hist            |       63820     71.69%     71.69% |        3956      4.44%     76.13% |        5804      6.52%     82.65% |        5909      6.64%     89.29% |        7412      8.33%     97.62% |        2106      2.37%     99.98% |          17      0.02%    100.00% |           0      0.00%    100.00% |           0      0.00%    100.00% |           0      0.00%    100.00%
system.ruby.miss_latency_hist::total            89024                      
system.gpu.shader_mmu.numPagefaults                 0                       # Number of Pagefaults
system.gpu.shader_mmu.numPagewalks               9614                       # Number of Pagewalks
system.gpu.shader_mmu.totalRequests              9614                       # Total number of requests
system.gpu.shader_mmu.l2hits                        0                       # Hits in the shared L2
system.gpu.shader_mmu.prefetchHits                  0                       # Number of prefetch hits
system.gpu.shader_mmu.numPrefetches                 0                       # Number of prefetchs
system.gpu.shader_mmu.prefetchFaults                0                       # Number of faults caused by prefetches
system.gpu.shader_mmu.pagefaultLatency::samples            0                       # Latency to complete the pagefault
system.gpu.shader_mmu.pagefaultLatency::mean          nan                       # Latency to complete the pagefault
system.gpu.shader_mmu.pagefaultLatency::gmean          nan                       # Latency to complete the pagefault
system.gpu.shader_mmu.pagefaultLatency::stdev          nan                       # Latency to complete the pagefault
system.gpu.shader_mmu.pagefaultLatency::0            0                       # Latency to complete the pagefault
system.gpu.shader_mmu.pagefaultLatency::1            0                       # Latency to complete the pagefault
system.gpu.shader_mmu.pagefaultLatency::2            0                       # Latency to complete the pagefault
system.gpu.shader_mmu.pagefaultLatency::3            0                       # Latency to complete the pagefault
system.gpu.shader_mmu.pagefaultLatency::4            0                       # Latency to complete the pagefault
system.gpu.shader_mmu.pagefaultLatency::5            0                       # Latency to complete the pagefault
system.gpu.shader_mmu.pagefaultLatency::6            0                       # Latency to complete the pagefault
system.gpu.shader_mmu.pagefaultLatency::7            0                       # Latency to complete the pagefault
system.gpu.shader_mmu.pagefaultLatency::8            0                       # Latency to complete the pagefault
system.gpu.shader_mmu.pagefaultLatency::9            0                       # Latency to complete the pagefault
system.gpu.shader_mmu.pagefaultLatency::10            0                       # Latency to complete the pagefault
system.gpu.shader_mmu.pagefaultLatency::11            0                       # Latency to complete the pagefault
system.gpu.shader_mmu.pagefaultLatency::12            0                       # Latency to complete the pagefault
system.gpu.shader_mmu.pagefaultLatency::13            0                       # Latency to complete the pagefault
system.gpu.shader_mmu.pagefaultLatency::14            0                       # Latency to complete the pagefault
system.gpu.shader_mmu.pagefaultLatency::15            0                       # Latency to complete the pagefault
system.gpu.shader_mmu.pagefaultLatency::16            0                       # Latency to complete the pagefault
system.gpu.shader_mmu.pagefaultLatency::17            0                       # Latency to complete the pagefault
system.gpu.shader_mmu.pagefaultLatency::18            0                       # Latency to complete the pagefault
system.gpu.shader_mmu.pagefaultLatency::19            0                       # Latency to complete the pagefault
system.gpu.shader_mmu.pagefaultLatency::20            0                       # Latency to complete the pagefault
system.gpu.shader_mmu.pagefaultLatency::21            0                       # Latency to complete the pagefault
system.gpu.shader_mmu.pagefaultLatency::22            0                       # Latency to complete the pagefault
system.gpu.shader_mmu.pagefaultLatency::23            0                       # Latency to complete the pagefault
system.gpu.shader_mmu.pagefaultLatency::24            0                       # Latency to complete the pagefault
system.gpu.shader_mmu.pagefaultLatency::25            0                       # Latency to complete the pagefault
system.gpu.shader_mmu.pagefaultLatency::26            0                       # Latency to complete the pagefault
system.gpu.shader_mmu.pagefaultLatency::27            0                       # Latency to complete the pagefault
system.gpu.shader_mmu.pagefaultLatency::28            0                       # Latency to complete the pagefault
system.gpu.shader_mmu.pagefaultLatency::29            0                       # Latency to complete the pagefault
system.gpu.shader_mmu.pagefaultLatency::30            0                       # Latency to complete the pagefault
system.gpu.shader_mmu.pagefaultLatency::31            0                       # Latency to complete the pagefault
system.gpu.shader_mmu.pagefaultLatency::total            0                       # Latency to complete the pagefault
system.gpu.shader_mmu.concurrentWalks::samples         9614                       # Number of outstanding walks
system.gpu.shader_mmu.concurrentWalks::mean            0                       # Number of outstanding walks
system.gpu.shader_mmu.concurrentWalks::gmean            0                       # Number of outstanding walks
system.gpu.shader_mmu.concurrentWalks::stdev            0                       # Number of outstanding walks
system.gpu.shader_mmu.concurrentWalks::0         9614    100.00%    100.00% # Number of outstanding walks
system.gpu.shader_mmu.concurrentWalks::1            0      0.00%    100.00% # Number of outstanding walks
system.gpu.shader_mmu.concurrentWalks::2            0      0.00%    100.00% # Number of outstanding walks
system.gpu.shader_mmu.concurrentWalks::3            0      0.00%    100.00% # Number of outstanding walks
system.gpu.shader_mmu.concurrentWalks::4            0      0.00%    100.00% # Number of outstanding walks
system.gpu.shader_mmu.concurrentWalks::5            0      0.00%    100.00% # Number of outstanding walks
system.gpu.shader_mmu.concurrentWalks::6            0      0.00%    100.00% # Number of outstanding walks
system.gpu.shader_mmu.concurrentWalks::7            0      0.00%    100.00% # Number of outstanding walks
system.gpu.shader_mmu.concurrentWalks::8            0      0.00%    100.00% # Number of outstanding walks
system.gpu.shader_mmu.concurrentWalks::9            0      0.00%    100.00% # Number of outstanding walks
system.gpu.shader_mmu.concurrentWalks::10            0      0.00%    100.00% # Number of outstanding walks
system.gpu.shader_mmu.concurrentWalks::11            0      0.00%    100.00% # Number of outstanding walks
system.gpu.shader_mmu.concurrentWalks::12            0      0.00%    100.00% # Number of outstanding walks
system.gpu.shader_mmu.concurrentWalks::13            0      0.00%    100.00% # Number of outstanding walks
system.gpu.shader_mmu.concurrentWalks::14            0      0.00%    100.00% # Number of outstanding walks
system.gpu.shader_mmu.concurrentWalks::15            0      0.00%    100.00% # Number of outstanding walks
system.gpu.shader_mmu.concurrentWalks::total         9614                       # Number of outstanding walks
system.gpu.shader_mmu.pagewalkLatency::samples         9614                       # Latency to complete the pagewalk
system.gpu.shader_mmu.pagewalkLatency::mean            0                       # Latency to complete the pagewalk
system.gpu.shader_mmu.pagewalkLatency::gmean            0                       # Latency to complete the pagewalk
system.gpu.shader_mmu.pagewalkLatency::stdev            0                       # Latency to complete the pagewalk
system.gpu.shader_mmu.pagewalkLatency::0         9614    100.00%    100.00% # Latency to complete the pagewalk
system.gpu.shader_mmu.pagewalkLatency::1            0      0.00%    100.00% # Latency to complete the pagewalk
system.gpu.shader_mmu.pagewalkLatency::2            0      0.00%    100.00% # Latency to complete the pagewalk
system.gpu.shader_mmu.pagewalkLatency::3            0      0.00%    100.00% # Latency to complete the pagewalk
system.gpu.shader_mmu.pagewalkLatency::4            0      0.00%    100.00% # Latency to complete the pagewalk
system.gpu.shader_mmu.pagewalkLatency::5            0      0.00%    100.00% # Latency to complete the pagewalk
system.gpu.shader_mmu.pagewalkLatency::6            0      0.00%    100.00% # Latency to complete the pagewalk
system.gpu.shader_mmu.pagewalkLatency::7            0      0.00%    100.00% # Latency to complete the pagewalk
system.gpu.shader_mmu.pagewalkLatency::8            0      0.00%    100.00% # Latency to complete the pagewalk
system.gpu.shader_mmu.pagewalkLatency::9            0      0.00%    100.00% # Latency to complete the pagewalk
system.gpu.shader_mmu.pagewalkLatency::10            0      0.00%    100.00% # Latency to complete the pagewalk
system.gpu.shader_mmu.pagewalkLatency::11            0      0.00%    100.00% # Latency to complete the pagewalk
system.gpu.shader_mmu.pagewalkLatency::12            0      0.00%    100.00% # Latency to complete the pagewalk
system.gpu.shader_mmu.pagewalkLatency::13            0      0.00%    100.00% # Latency to complete the pagewalk
system.gpu.shader_mmu.pagewalkLatency::14            0      0.00%    100.00% # Latency to complete the pagewalk
system.gpu.shader_mmu.pagewalkLatency::15            0      0.00%    100.00% # Latency to complete the pagewalk
system.gpu.shader_mmu.pagewalkLatency::16            0      0.00%    100.00% # Latency to complete the pagewalk
system.gpu.shader_mmu.pagewalkLatency::17            0      0.00%    100.00% # Latency to complete the pagewalk
system.gpu.shader_mmu.pagewalkLatency::18            0      0.00%    100.00% # Latency to complete the pagewalk
system.gpu.shader_mmu.pagewalkLatency::19            0      0.00%    100.00% # Latency to complete the pagewalk
system.gpu.shader_mmu.pagewalkLatency::20            0      0.00%    100.00% # Latency to complete the pagewalk
system.gpu.shader_mmu.pagewalkLatency::21            0      0.00%    100.00% # Latency to complete the pagewalk
system.gpu.shader_mmu.pagewalkLatency::22            0      0.00%    100.00% # Latency to complete the pagewalk
system.gpu.shader_mmu.pagewalkLatency::23            0      0.00%    100.00% # Latency to complete the pagewalk
system.gpu.shader_mmu.pagewalkLatency::24            0      0.00%    100.00% # Latency to complete the pagewalk
system.gpu.shader_mmu.pagewalkLatency::25            0      0.00%    100.00% # Latency to complete the pagewalk
system.gpu.shader_mmu.pagewalkLatency::26            0      0.00%    100.00% # Latency to complete the pagewalk
system.gpu.shader_mmu.pagewalkLatency::27            0      0.00%    100.00% # Latency to complete the pagewalk
system.gpu.shader_mmu.pagewalkLatency::28            0      0.00%    100.00% # Latency to complete the pagewalk
system.gpu.shader_mmu.pagewalkLatency::29            0      0.00%    100.00% # Latency to complete the pagewalk
system.gpu.shader_mmu.pagewalkLatency::30            0      0.00%    100.00% # Latency to complete the pagewalk
system.gpu.shader_mmu.pagewalkLatency::31            0      0.00%    100.00% # Latency to complete the pagewalk
system.gpu.shader_mmu.pagewalkLatency::total         9614                       # Latency to complete the pagewalk
system.gpu.kernels_started                          1                       # Number of kernels started
system.gpu.kernels_completed                        1                       # Number of kernels completed
system.gpu.ce.device_dtb.hits                       0                       # Number of hits in this TLB
system.gpu.ce.device_dtb.misses                     0                       # Number of misses in this TLB
system.gpu.ce.device_dtb.hitRate                  nan                       # Hit rate for this TLB
system.gpu.ce.host_dtb.hits                      5640                       # Number of hits in this TLB
system.gpu.ce.host_dtb.misses                    9614                       # Number of misses in this TLB
system.gpu.ce.host_dtb.hitRate               0.369739                       # Hit rate for this TLB
system.gpu.ce.numOperations                         2                       # Number of copy/memset operations
system.gpu.ce.opBytesRead                     1952272                       # Number of copy bytes read
system.gpu.ce.opBytesWritten                  1952272                       # Number of copy/memset bytes written
system.gpu.ce.opTimeTicks                   603272806                       # Total time spent in copy/memset operations
system.gpu.shader_cores0.itb.hits                   0                       # Number of hits in this TLB
system.gpu.shader_cores0.itb.misses                 0                       # Number of misses in this TLB
system.gpu.shader_cores0.itb.hitRate              nan                       # Hit rate for this TLB
system.gpu.shader_cores0.local_loads                0                       # Number of loads from local space
system.gpu.shader_cores0.local_stores               0                       # Number of stores to local space
system.gpu.shader_cores0.shared_loads               0                       # Number of loads from shared space
system.gpu.shader_cores0.shared_stores              0                       # Number of stores to shared space
system.gpu.shader_cores0.param_kernel_loads            0                       # Number of loads from kernel parameter space
system.gpu.shader_cores0.param_local_loads            0                       # Number of loads from local parameter space
system.gpu.shader_cores0.param_local_stores            0                       # Number of stores to local parameter space
system.gpu.shader_cores0.const_loads            66638                       # Number of loads from constant space
system.gpu.shader_cores0.tex_loads                  0                       # Number of loads from texture space
system.gpu.shader_cores0.global_loads          101465                       # Number of loads from global space
system.gpu.shader_cores0.global_stores          33839                       # Number of stores to global space
system.gpu.shader_cores0.surf_loads                 0                       # Number of loads from surface space
system.gpu.shader_cores0.generic_loads              0                       # Number of loads from generic spaces (global, shared, local)
system.gpu.shader_cores0.generic_stores             0                       # Number of stores to generic spaces (global, shared, local)
system.gpu.shader_cores0.inst_cache_requests           10                       # Number of instruction cache requests sent
system.gpu.shader_cores0.inst_cache_retries            0                       # Number of instruction cache retries
system.gpu.shader_cores0.inst_counts::0             0                       # Inst counts: 1: ALU, 2: MAD, 3: CTRL, 4: SFU, 5: MEM, 6: TEX, 7: NOP
system.gpu.shader_cores0.inst_counts::1       1058174                       # Inst counts: 1: ALU, 2: MAD, 3: CTRL, 4: SFU, 5: MEM, 6: TEX, 7: NOP
system.gpu.shader_cores0.inst_counts::2             0                       # Inst counts: 1: ALU, 2: MAD, 3: CTRL, 4: SFU, 5: MEM, 6: TEX, 7: NOP
system.gpu.shader_cores0.inst_counts::3         86918                       # Inst counts: 1: ALU, 2: MAD, 3: CTRL, 4: SFU, 5: MEM, 6: TEX, 7: NOP
system.gpu.shader_cores0.inst_counts::4             0                       # Inst counts: 1: ALU, 2: MAD, 3: CTRL, 4: SFU, 5: MEM, 6: TEX, 7: NOP
system.gpu.shader_cores0.inst_counts::5        201942                       # Inst counts: 1: ALU, 2: MAD, 3: CTRL, 4: SFU, 5: MEM, 6: TEX, 7: NOP
system.gpu.shader_cores0.inst_counts::6             0                       # Inst counts: 1: ALU, 2: MAD, 3: CTRL, 4: SFU, 5: MEM, 6: TEX, 7: NOP
system.gpu.shader_cores0.inst_counts::7             0                       # Inst counts: 1: ALU, 2: MAD, 3: CTRL, 4: SFU, 5: MEM, 6: TEX, 7: NOP
system.gpu.shader_cores0.activeCycles          103049                       # Number of cycles this shader was executing a CTA
system.gpu.shader_cores0.notStalledCycles        36182                       # Number of cycles this shader was actually executing at least one instance
system.gpu.shader_cores0.instInstances        1347034                       # Total instructions executed by all PEs in the core
system.gpu.shader_cores0.instPerCycle       13.071781                       # Instruction instances per cycle
system.gpu.shader_cores0.kernels_completed            1                       # Number of kernels completed
system.gpu.shader_cores0.lsq.data_tlb.hits            0                       # Number of hits in this TLB
system.gpu.shader_cores0.lsq.data_tlb.misses            0                       # Number of misses in this TLB
system.gpu.shader_cores0.lsq.data_tlb.hitRate          nan                       # Hit rate for this TLB
system.gpu.shader_cores0.lsq.warpInstBufActive::samples    147158420                       # Histogram of number of active warp inst buffers at a given time
system.gpu.shader_cores0.lsq.warpInstBufActive::mean    16.744174                       # Histogram of number of active warp inst buffers at a given time
system.gpu.shader_cores0.lsq.warpInstBufActive::gmean            0                       # Histogram of number of active warp inst buffers at a given time
system.gpu.shader_cores0.lsq.warpInstBufActive::stdev     7.954975                       # Histogram of number of active warp inst buffers at a given time
system.gpu.shader_cores0.lsq.warpInstBufActive::0      5537375      3.76%      3.76% # Histogram of number of active warp inst buffers at a given time
system.gpu.shader_cores0.lsq.warpInstBufActive::1      3669672      2.49%      6.26% # Histogram of number of active warp inst buffers at a given time
system.gpu.shader_cores0.lsq.warpInstBufActive::2      3453893      2.35%      8.60% # Histogram of number of active warp inst buffers at a given time
[...]
system.ruby.L1Cache_Controller.Ack_all::total            1                      
system.ruby.L1Cache_Controller.WB_Ack    |       46820     58.30%     58.30% |           0      0.00%     58.30% |         782      0.97%     59.27% |         776      0.97%     60.24% |         665      0.83%     61.07% |         770      0.96%     62.02% |           0      0.00%     62.02% |       30499     37.98%    100.00%
system.ruby.L1Cache_Controller.WB_Ack::total        80312                      
system.ruby.L1Cache_Controller.NP.Load   |       43602     66.48%     66.48% |           0      0.00%     66.48% |        1707      2.60%     69.08% |        1730      2.64%     71.72% |        1579      2.41%     74.12% |        1718      2.62%     76.74% |           0      0.00%     76.74% |       15254     23.26%    100.00%
system.ruby.L1Cache_Controller.NP.Load::total        65590                      
system.ruby.L1Cache_Controller.NP.Ifetch |          46     53.49%     53.49% |           0      0.00%     53.49% |          10     11.63%     65.12% |          10     11.63%     76.74% |          10     11.63%     88.37% |          10     11.63%    100.00% |           0      0.00%    100.00% |           0      0.00%    100.00%
system.ruby.L1Cache_Controller.NP.Ifetch::total           86                      
system.ruby.L1Cache_Controller.NP.Store  |        3488     15.14%     15.14% |           0      0.00%     15.14% |        1096      4.76%     19.90% |        1096      4.76%     24.65% |        1009      4.38%     29.03% |        1096      4.76%     33.79% |           0      0.00%     33.79% |       15253     66.21%    100.00%
system.ruby.L1Cache_Controller.NP.Store::total        23038                      
system.ruby.L1Cache_Controller.NP.Inv    |           4      0.17%      0.17% |           0      0.00%      0.17% |         580     24.56%     24.72% |         641     27.14%     51.86% |         548     23.20%     75.06% |         589     24.94%    100.00% |           0      0.00%    100.00% |           0      0.00%    100.00%
system.ruby.L1Cache_Controller.NP.Inv::total         2362                      
system.ruby.L1Cache_Controller.I.Load    |          69     74.19%     74.19% |           0      0.00%     74.19% |           5      5.38%     79.57% |           7      7.53%     87.10% |           7      7.53%     94.62% |           5      5.38%    100.00% |           0      0.00%    100.00% |           0      0.00%    100.00%
system.ruby.L1Cache_Controller.I.Load::total           93                      
system.ruby.L1Cache_Controller.I.Ifetch  |         197    100.00%    100.00% |           0      0.00%    100.00% |           0      0.00%    100.00% |           0      0.00%    100.00% |           0      0.00%    100.00% |           0      0.00%    100.00% |           0      0.00%    100.00% |           0      0.00%    100.00%
system.ruby.L1Cache_Controller.I.Ifetch::total          197                      
system.ruby.L1Cache_Controller.I.Store   |          19    100.00%    100.00% |           0      0.00%    100.00% |           0      0.00%    100.00% |           0      0.00%    100.00% |           0      0.00%    100.00% |           0      0.00%    100.00% |           0      0.00%    100.00% |           0      0.00%    100.00%
system.ruby.L1Cache_Controller.I.Store::total           19                      
system.ruby.L1Cache_Controller.I.L1_Replacement |         310      7.88%      7.88% |           0      0.00%      7.88% |         922     23.44%     31.32% |         894     22.73%     54.06% |         858     21.82%     75.87% |         941     23.93%     99.80% |           0      0.00%     99.80% |           8      0.20%    100.00%
system.ruby.L1Cache_Controller.I.L1_Replacement::total         3933                      
system.ruby.L1Cache_Controller.S.Load    |           2      0.01%      0.01% |           0      0.00%      0.01% |        3719     25.52%     25.53% |        3699     25.38%     50.92% |        3462     23.76%     74.67% |        3691     25.33%    100.00% |           0      0.00%    100.00% |           0      0.00%    100.00%
system.ruby.L1Cache_Controller.S.Load::total        14573                      
system.ruby.L1Cache_Controller.S.Ifetch  |     1251583    100.00%    100.00% |           0      0.00%    100.00% |           0      0.00%    100.00% |           0      0.00%    100.00% |           0      0.00%    100.00% |           0      0.00%    100.00% |           0      0.00%    100.00% |           0      0.00%    100.00%
system.ruby.L1Cache_Controller.S.Ifetch::total      1251583                      
system.ruby.L1Cache_Controller.S.Store   |           1    100.00%    100.00% |           0      0.00%    100.00% |           0      0.00%    100.00% |           0      0.00%    100.00% |           0      0.00%    100.00% |           0      0.00%    100.00% |           0      0.00%    100.00% |           0      0.00%    100.00%
system.ruby.L1Cache_Controller.S.Store::total            1                      
system.ruby.L1Cache_Controller.S.Inv     |         239     10.28%     10.28% |           0      0.00%     10.28% |         452     19.43%     29.71% |         537     23.09%     52.79% |         554     23.82%     76.61% |         542     23.30%     99.91% |           0      0.00%     99.91% |           2      0.09%    100.00%
system.ruby.L1Cache_Controller.S.Inv::total         2326                      
system.ruby.L1Cache_Controller.S.L1_Replacement |           4      0.17%      0.17% |           0      0.00%      0.17% |         587     24.67%     24.84% |         644     27.07%     51.91% |         553     23.25%     75.16% |         591     24.84%    100.00% |           0      0.00%    100.00% |           0      0.00%    100.00%
system.ruby.L1Cache_Controller.S.L1_Replacement::total         2379                      
system.ruby.L1Cache_Controller.E.Load    |       68171     91.70%     91.70% |           0      0.00%     91.70% |        1564      2.10%     93.80% |        1590      2.14%     95.94% |        1420      1.91%     97.85% |        1598      2.15%    100.00% |           0      0.00%    100.00% |           0      0.00%    100.00%
system.ruby.L1Cache_Controller.E.Load::total        74343                      
system.ruby.L1Cache_Controller.E.Store   |          61    100.00%    100.00% |           0      0.00%    100.00% |           0      0.00%    100.00% |           0      0.00%    100.00% |           0      0.00%    100.00% |           0      0.00%    100.00% |           0      0.00%    100.00% |           0      0.00%    100.00%
system.ruby.L1Cache_Controller.E.Store::total           61                      
system.ruby.L1Cache_Controller.E.Inv     |         270     15.37%     15.37% |           0      0.00%     15.37% |         483     27.49%     42.86% |         335     19.07%     61.92% |         313     17.81%     79.74% |         356     20.26%    100.00% |           0      0.00%    100.00% |           0      0.00%    100.00%
system.ruby.L1Cache_Controller.E.Inv::total         1757                      
system.ruby.L1Cache_Controller.E.L1_Replacement |       43541     73.00%     73.00% |           0      0.00%     73.00% |         200      0.34%     73.34% |         231      0.39%     73.72% |         176      0.30%     74.02% |         244      0.41%     74.43% |           0      0.00%     74.43% |       15253     25.57%    100.00%
system.ruby.L1Cache_Controller.E.L1_Replacement::total        59645                      
system.ruby.L1Cache_Controller.E.Fwd_GETS |           1      0.06%      0.06% |           0      0.00%      0.06% |         512     32.93%     32.99% |         369     23.73%     56.72% |         297     19.10%     75.82% |         376     24.18%    100.00% |           0      0.00%    100.00% |           0      0.00%    100.00%
system.ruby.L1Cache_Controller.E.Fwd_GETS::total         1555                      
system.ruby.L1Cache_Controller.M.Load    |        1549    100.00%    100.00% |           0      0.00%    100.00% |           0      0.00%    100.00% |           0      0.00%    100.00% |           0      0.00%    100.00% |           0      0.00%    100.00% |           0      0.00%    100.00% |           0      0.00%    100.00%
system.ruby.L1Cache_Controller.M.Load::total         1549                      
system.ruby.L1Cache_Controller.M.Store   |      109110     96.49%     96.49% |           0      0.00%     96.49% |        1053      0.93%     97.42% |         972      0.86%     98.28% |         891      0.79%     99.07% |        1053      0.93%    100.00% |           0      0.00%    100.00% |           0      0.00%    100.00%
system.ruby.L1Cache_Controller.M.Store::total       113079                      
system.ruby.L1Cache_Controller.M.Inv     |          87      3.95%      3.95% |           0      0.00%      3.95% |         494     22.42%     26.37% |         540     24.51%     50.89% |         513     23.29%     74.17% |         563     25.56%     99.73% |           0      0.00%     99.73% |           6      0.27%    100.00%
system.ruby.L1Cache_Controller.M.Inv::total         2203                      
system.ruby.L1Cache_Controller.M.L1_Replacement |        3279     15.87%     15.87% |           0      0.00%     15.87% |         582      2.82%     18.68% |         545      2.64%     21.32% |         489      2.37%     23.69% |         526      2.55%     26.23% |           0      0.00%     26.23% |       15246     73.77%    100.00%
system.ruby.L1Cache_Controller.M.L1_Replacement::total        20667                      
system.ruby.L1Cache_Controller.M.Fwd_GETX |           0      0.00%      0.00% |           0      0.00%      0.00% |          20     44.44%     44.44% |          11     24.44%     68.89% |           7     15.56%     84.44% |           7     15.56%    100.00% |           0      0.00%    100.00% |           0      0.00%    100.00%
system.ruby.L1Cache_Controller.M.Fwd_GETX::total           45                      
system.ruby.L1Cache_Controller.M.Fwd_GETS |           1     50.00%     50.00% |           0      0.00%     50.00% |           0      0.00%     50.00% |           0      0.00%     50.00% |           0      0.00%     50.00% |           0      0.00%     50.00% |           0      0.00%     50.00% |           1     50.00%    100.00%
system.ruby.L1Cache_Controller.M.Fwd_GETS::total            2                      
system.ruby.L1Cache_Controller.IS.L1_Replacement |           0      0.00%      0.00% |           0      0.00%      0.00% |           0      0.00%      0.00% |           0      0.00%      0.00% |           0      0.00%      0.00% |           0      0.00%      0.00% |           0      0.00%      0.00% |      199881    100.00%    100.00%
system.ruby.L1Cache_Controller.IS.L1_Replacement::total       199881                      
system.ruby.L1Cache_Controller.IS.Data_Exclusive |       43671     69.52%     69.52% |           0      0.00%     69.52% |        1195      1.90%     71.42% |         935      1.49%     72.91% |         786      1.25%     74.16% |         976      1.55%     75.72% |           0      0.00%     75.72% |       15253     24.28%    100.00%
system.ruby.L1Cache_Controller.IS.Data_Exclusive::total        62816                      
system.ruby.L1Cache_Controller.IS.DataS_fromL1 |           0      0.00%      0.00% |           0      0.00%      0.00% |         238     15.29%     15.29% |         400     25.69%     40.98% |         450     28.90%     69.88% |         468     30.06%     99.94% |           0      0.00%     99.94% |           1      0.06%    100.00%
system.ruby.L1Cache_Controller.IS.DataS_fromL1::total         1557                      
system.ruby.L1Cache_Controller.IS.Data_all_Acks |         243     15.25%     15.25% |           0      0.00%     15.25% |         289     18.14%     33.40% |         412     25.86%     59.26% |         360     22.60%     81.86% |         289     18.14%    100.00% |           0      0.00%    100.00% |           0      0.00%    100.00%
system.ruby.L1Cache_Controller.IS.Data_all_Acks::total         1593                      
system.ruby.L1Cache_Controller.IM.L1_Replacement |           0      0.00%      0.00% |           0      0.00%      0.00% |           0      0.00%      0.00% |           0      0.00%      0.00% |           0      0.00%      0.00% |           0      0.00%      0.00% |           0      0.00%      0.00% |      220833    100.00%    100.00%
system.ruby.L1Cache_Controller.IM.L1_Replacement::total       220833                      
system.ruby.L1Cache_Controller.IM.Data_all_Acks |        3507     15.21%     15.21% |           0      0.00%     15.21% |        1096      4.75%     19.96% |        1096      4.75%     24.72% |        1009      4.38%     29.09% |        1096      4.75%     33.85% |           0      0.00%     33.85% |       15253     66.15%    100.00%
system.ruby.L1Cache_Controller.IM.Data_all_Acks::total        23057                      
system.ruby.L1Cache_Controller.SM.Ack    |           1    100.00%    100.00% |           0      0.00%    100.00% |           0      0.00%    100.00% |           0      0.00%    100.00% |           0      0.00%    100.00% |           0      0.00%    100.00% |           0      0.00%    100.00% |           0      0.00%    100.00%
system.ruby.L1Cache_Controller.SM.Ack::total            1                      
system.ruby.L1Cache_Controller.SM.Ack_all |           1    100.00%    100.00% |           0      0.00%    100.00% |           0      0.00%    100.00% |           0      0.00%    100.00% |           0      0.00%    100.00% |           0      0.00%    100.00% |           0      0.00%    100.00% |           0      0.00%    100.00%
system.ruby.L1Cache_Controller.SM.Ack_all::total            1                      
system.ruby.L1Cache_Controller.M_I.Inv   |           0      0.00%      0.00% |           0      0.00%      0.00% |           3     33.33%     33.33% |           2     22.22%     55.56% |           1     11.11%     66.67% |           3     33.33%    100.00% |           0      0.00%    100.00% |           0      0.00%    100.00%
system.ruby.L1Cache_Controller.M_I.Inv::total            9                      
system.ruby.L1Cache_Controller.M_I.WB_Ack |       46820     58.30%     58.30% |           0      0.00%     58.30% |         779      0.97%     59.27% |         774      0.96%     60.24% |         664      0.83%     61.06% |         767      0.96%     62.02% |           0      0.00%     62.02% |       30499     37.98%    100.00%
system.ruby.L1Cache_Controller.M_I.WB_Ack::total        80303                      
system.ruby.L1Cache_Controller.SINK_WB_ACK.WB_Ack |           0      0.00%      0.00% |           0      0.00%      0.00% |           3     33.33%     33.33% |           2     22.22%     55.56% |           1     11.11%     66.67% |           3     33.33%    100.00% |           0      0.00%    100.00% |           0      0.00%    100.00%
system.ruby.L1Cache_Controller.SINK_WB_ACK.WB_Ack::total            9                      
system.ruby.L2Cache_Controller.L1_GET_INSTR          283      0.00%      0.00%
system.ruby.L2Cache_Controller.L1_GETS          65694      0.00%      0.00%
system.ruby.L2Cache_Controller.L1_GETX          23059      0.00%      0.00%
system.ruby.L2Cache_Controller.L1_UPGRADE            1      0.00%      0.00%
system.ruby.L2Cache_Controller.L1_PUTX          80303      0.00%      0.00%
system.ruby.L2Cache_Controller.L1_PUTX_old           11      0.00%      0.00%
system.ruby.L2Cache_Controller.L2_Replacement        20003      0.00%      0.00%
system.ruby.L2Cache_Controller.L2_Replacement_clean        25371      0.00%      0.00%
system.ruby.L2Cache_Controller.Mem_Data         45374      0.00%      0.00%
system.ruby.L2Cache_Controller.Mem_Ack          45374      0.00%      0.00%
system.ruby.L2Cache_Controller.WB_Data           2209      0.00%      0.00%
system.ruby.L2Cache_Controller.WB_Data_clean         1560      0.00%      0.00%
system.ruby.L2Cache_Controller.Ack               2466      0.00%      0.00%
system.ruby.L2Cache_Controller.Ack_all           3978      0.00%      0.00%
system.ruby.L2Cache_Controller.Unblock           1557      0.00%      0.00%
system.ruby.L2Cache_Controller.Exclusive_Unblock        85874      0.00%      0.00%
system.ruby.L2Cache_Controller.NP.L1_GET_INSTR          253      0.00%      0.00%
system.ruby.L2Cache_Controller.NP.L1_GETS        22109      0.00%      0.00%
system.ruby.L2Cache_Controller.NP.L1_GETX        23012      0.00%      0.00%
system.ruby.L2Cache_Controller.NP.L1_PUTX_old            6      0.00%      0.00%
system.ruby.L2Cache_Controller.SS.L1_GET_INSTR            3      0.00%      0.00%
system.ruby.L2Cache_Controller.SS.L1_GETS          450      0.00%      0.00%
system.ruby.L2Cache_Controller.SS.L1_UPGRADE            1      0.00%      0.00%
system.ruby.L2Cache_Controller.SS.L2_Replacement            2      0.00%      0.00%
system.ruby.L2Cache_Controller.SS.L2_Replacement_clean         2219      0.00%      0.00%
system.ruby.L2Cache_Controller.M.L1_GETS        41120      0.00%      0.00%
system.ruby.L2Cache_Controller.M.L2_Replacement        20001      0.00%      0.00%
system.ruby.L2Cache_Controller.M.L2_Replacement_clean        19183      0.00%      0.00%
system.ruby.L2Cache_Controller.MT.L1_GETS         1557      0.00%      0.00%
system.ruby.L2Cache_Controller.MT.L1_GETX           45      0.00%      0.00%
system.ruby.L2Cache_Controller.MT.L1_PUTX        80303      0.00%      0.00%
system.ruby.L2Cache_Controller.MT.L2_Replacement_clean         3969      0.00%      0.00%
system.ruby.L2Cache_Controller.M_I.L1_GETS            2      0.00%      0.00%
system.ruby.L2Cache_Controller.M_I.L1_PUTX_old            2      0.00%      0.00%
system.ruby.L2Cache_Controller.M_I.Mem_Ack        45374      0.00%      0.00%
system.ruby.L2Cache_Controller.MCT_I.L1_PUTX_old            2      0.00%      0.00%
system.ruby.L2Cache_Controller.MCT_I.WB_Data         2207      0.00%      0.00%
system.ruby.L2Cache_Controller.MCT_I.WB_Data_clean            5      0.00%      0.00%
system.ruby.L2Cache_Controller.MCT_I.Ack_all         1757      0.00%      0.00%
system.ruby.L2Cache_Controller.I_I.Ack           2458      0.00%      0.00%
system.ruby.L2Cache_Controller.I_I.Ack_all         2219      0.00%      0.00%
system.ruby.L2Cache_Controller.S_I.Ack              8      0.00%      0.00%
system.ruby.L2Cache_Controller.S_I.Ack_all            2      0.00%      0.00%
system.ruby.L2Cache_Controller.ISS.L1_GETS          413      0.00%      0.00%
system.ruby.L2Cache_Controller.ISS.L1_PUTX_old            1      0.00%      0.00%
system.ruby.L2Cache_Controller.ISS.Mem_Data        21696      0.00%      0.00%
system.ruby.L2Cache_Controller.IS.L1_GET_INSTR           27      0.00%      0.00%
system.ruby.L2Cache_Controller.IS.L1_GETS           34      0.00%      0.00%
system.ruby.L2Cache_Controller.IS.Mem_Data          666      0.00%      0.00%
system.ruby.L2Cache_Controller.IM.L1_GETX            2      0.00%      0.00%
system.ruby.L2Cache_Controller.IM.Mem_Data        23012      0.00%      0.00%
system.ruby.L2Cache_Controller.SS_MB.Exclusive_Unblock            1      0.00%      0.00%
system.ruby.L2Cache_Controller.MT_MB.L1_GETS            2      0.00%      0.00%
system.ruby.L2Cache_Controller.MT_MB.Exclusive_Unblock        85873      0.00%      0.00%
system.ruby.L2Cache_Controller.MT_IIB.L1_GETS            7      0.00%      0.00%
system.ruby.L2Cache_Controller.MT_IIB.WB_Data_clean           90      0.00%      0.00%
system.ruby.L2Cache_Controller.MT_IIB.Unblock         1467      0.00%      0.00%
system.ruby.L2Cache_Controller.MT_IB.WB_Data            2      0.00%      0.00%
system.ruby.L2Cache_Controller.MT_IB.WB_Data_clean         1465      0.00%      0.00%
system.ruby.L2Cache_Controller.MT_SB.Unblock           90      0.00%      0.00%

---------- End Simulation Statistics   ----------
