
---------- Begin Simulation Statistics ----------
sim_seconds                                  0.035745                       # Number of seconds simulated
sim_ticks                                 35744799500                       # Number of ticks simulated
final_tick                                35744799500                       # Number of ticks from beginning of simulation (restored from checkpoints and never reset)
sim_freq                                 1000000000000                       # Frequency of simulated ticks
host_inst_rate                                 169036                       # Simulator instruction rate (inst/s)
host_op_rate                                   330049                       # Simulator op (including micro ops) rate (op/s)
host_tick_rate                              325495910                       # Simulator tick rate (ticks/s)
host_mem_usage                                4575312                       # Number of bytes of host memory used
host_seconds                                   109.82                       # Real time elapsed on the host
sim_insts                                    18562921                       # Number of instructions simulated
sim_ops                                      36244844                       # Number of ops (including micro ops) simulated
system.voltage_domain.voltage                       1                       # Voltage in Volts
system.clk_domain.clock                          1000                       # Clock period in ticks
system.mem_ctrls.bytes_read::ruby.dir_cntrl0      6974464                       # Number of bytes read from this memory
system.mem_ctrls.bytes_read::total            6974464                       # Number of bytes read from this memory
system.mem_ctrls.bytes_written::ruby.dir_cntrl0      4177408                       # Number of bytes written to this memory
system.mem_ctrls.bytes_written::total         4177408                       # Number of bytes written to this memory
system.mem_ctrls.num_reads::ruby.dir_cntrl0        54488                       # Number of read requests responded to by this memory
system.mem_ctrls.num_reads::total               54488                       # Number of read requests responded to by this memory
system.mem_ctrls.num_writes::ruby.dir_cntrl0        32636                       # Number of write requests responded to by this memory
system.mem_ctrls.num_writes::total              32636                       # Number of write requests responded to by this memory
system.mem_ctrls.bw_read::ruby.dir_cntrl0    195118286                       # Total read bandwidth from this memory (bytes/s)
system.mem_ctrls.bw_read::total             195118286                       # Total read bandwidth from this memory (bytes/s)
system.mem_ctrls.bw_write::ruby.dir_cntrl0    116867574                       # Write bandwidth from this memory (bytes/s)
system.mem_ctrls.bw_write::total            116867574                       # Write bandwidth from this memory (bytes/s)
system.mem_ctrls.bw_total::ruby.dir_cntrl0    311985860                       # Total bandwidth to/from this memory (bytes/s)
system.mem_ctrls.bw_total::total            311985860                       # Total bandwidth to/from this memory (bytes/s)
system.mem_ctrls.readReqs                       54488                       # Number of read requests accepted
system.mem_ctrls.writeReqs                      32636                       # Number of write requests accepted
system.mem_ctrls.readBursts                    108976                       # Number of DRAM read bursts, including those serviced by the write queue
system.mem_ctrls.writeBursts                    65272                       # Number of DRAM write bursts, including those merged in the write queue
system.mem_ctrls.bytesReadDRAM                6966464                       # Total number of bytes read from DRAM
system.mem_ctrls.bytesReadWrQ                    8000                       # Total number of bytes read from write queue
system.mem_ctrls.bytesWritten                 4175424                       # Total number of bytes written to DRAM
system.mem_ctrls.bytesReadSys                 6974464                       # Total read bytes from the system interface side
system.mem_ctrls.bytesWrittenSys              4177408                       # Total written bytes from the system interface side
system.mem_ctrls.servicedByWrQ                    125                       # Number of DRAM read bursts serviced by the write queue
system.mem_ctrls.mergedWrBursts                     0                       # Number of DRAM write bursts merged with an existing one
system.mem_ctrls.neitherReadNorWriteReqs            0                       # Number of requests that are neither read nor write
system.mem_ctrls.perBankRdBursts::0              6844                       # Per bank write bursts
system.mem_ctrls.perBankRdBursts::1              6908                       # Per bank write bursts
system.mem_ctrls.perBankRdBursts::2              6906                       # Per bank write bursts
system.mem_ctrls.perBankRdBursts::3              6904                       # Per bank write bursts
system.mem_ctrls.perBankRdBursts::4              7128                       # Per bank write bursts
system.mem_ctrls.perBankRdBursts::5              6702                       # Per bank write bursts
system.mem_ctrls.perBankRdBursts::6              6824                       # Per bank write bursts
system.mem_ctrls.perBankRdBursts::7              6978                       # Per bank write bursts
system.mem_ctrls.perBankRdBursts::8              6774                       # Per bank write bursts
system.mem_ctrls.perBankRdBursts::9              6580                       # Per bank write bursts
system.mem_ctrls.perBankRdBursts::10             6454                       # Per bank write bursts
system.mem_ctrls.perBankRdBursts::11             6581                       # Per bank write bursts
system.mem_ctrls.perBankRdBursts::12             6784                       # Per bank write bursts
system.mem_ctrls.perBankRdBursts::13             6584                       # Per bank write bursts
system.mem_ctrls.perBankRdBursts::14             6848                       # Per bank write bursts
system.mem_ctrls.perBankRdBursts::15             7052                       # Per bank write bursts
system.mem_ctrls.perBankWrBursts::0              4016                       # Per bank write bursts
system.mem_ctrls.perBankWrBursts::1              4224                       # Per bank write bursts
system.mem_ctrls.perBankWrBursts::2              4224                       # Per bank write bursts
system.mem_ctrls.perBankWrBursts::3              4286                       # Per bank write bursts
system.mem_ctrls.perBankWrBursts::4              4480                       # Per bank write bursts
system.mem_ctrls.perBankWrBursts::5              4128                       # Per bank write bursts
system.mem_ctrls.perBankWrBursts::6              4181                       # Per bank write bursts
system.mem_ctrls.perBankWrBursts::7              4410                       # Per bank write bursts
system.mem_ctrls.perBankWrBursts::8              4020                       # Per bank write bursts
system.mem_ctrls.perBankWrBursts::9              3650                       # Per bank write bursts
system.mem_ctrls.perBankWrBursts::10             3750                       # Per bank write bursts
system.mem_ctrls.perBankWrBursts::11             3910                       # Per bank write bursts
system.mem_ctrls.perBankWrBursts::12             4058                       # Per bank write bursts
system.mem_ctrls.perBankWrBursts::13             3838                       # Per bank write bursts
system.mem_ctrls.perBankWrBursts::14             3970                       # Per bank write bursts
system.mem_ctrls.perBankWrBursts::15             4096                       # Per bank write bursts
system.mem_ctrls.numRdRetry                      9339                       # Number of times read queue was full causing retry
system.mem_ctrls.numWrRetry                       837                       # Number of times write queue was full causing retry
system.mem_ctrls.totGap                   35744703000                       # Total gap between requests
system.mem_ctrls.readPktSize::0                     0                       # Read request sizes (log2)
system.mem_ctrls.readPktSize::1                     0                       # Read request sizes (log2)
system.mem_ctrls.readPktSize::2                     0                       # Read request sizes (log2)
system.mem_ctrls.readPktSize::3                     0                       # Read request sizes (log2)
system.mem_ctrls.readPktSize::4                     0                       # Read request sizes (log2)
system.mem_ctrls.readPktSize::5                     0                       # Read request sizes (log2)
system.mem_ctrls.readPktSize::6                108976                       # Read request sizes (log2)
system.mem_ctrls.writePktSize::0                    0                       # Write request sizes (log2)
system.mem_ctrls.writePktSize::1                    0                       # Write request sizes (log2)
system.mem_ctrls.writePktSize::2                    0                       # Write request sizes (log2)
system.mem_ctrls.writePktSize::3                    0                       # Write request sizes (log2)
system.mem_ctrls.writePktSize::4                    0                       # Write request sizes (log2)
system.mem_ctrls.writePktSize::5                    0                       # Write request sizes (log2)
system.mem_ctrls.writePktSize::6                65272                       # Write request sizes (log2)
system.mem_ctrls.rdQLenPdf::0                   30618                       # What read queue length does an incoming req see
system.mem_ctrls.rdQLenPdf::1                   30779                       # What read queue length does an incoming req see
system.mem_ctrls.rdQLenPdf::2                    1762                       # What read queue length does an incoming req see
system.mem_ctrls.rdQLenPdf::3                    2247                       # What read queue length does an incoming req see
system.mem_ctrls.rdQLenPdf::4                    3638                       # What read queue length does an incoming req see
system.mem_ctrls.rdQLenPdf::5                    4611                       # What read queue length does an incoming req see
system.mem_ctrls.rdQLenPdf::6                    4690                       # What read queue length does an incoming req see
system.mem_ctrls.rdQLenPdf::7                    4119                       # What read queue length does an incoming req see
system.mem_ctrls.rdQLenPdf::8                    3420                       # What read queue length does an incoming req see
system.mem_ctrls.rdQLenPdf::9                    2883                       # What read queue length does an incoming req see
system.mem_ctrls.rdQLenPdf::10                   2521                       # What read queue length does an incoming req see
system.mem_ctrls.rdQLenPdf::11                   2430                       # What read queue length does an incoming req see
system.mem_ctrls.rdQLenPdf::12                   1822                       # What read queue length does an incoming req see
system.mem_ctrls.rdQLenPdf::13                   1492                       # What read queue length does an incoming req see
system.mem_ctrls.rdQLenPdf::14                    891                       # What read queue length does an incoming req see
system.mem_ctrls.rdQLenPdf::15                    816                       # What read queue length does an incoming req see
system.mem_ctrls.rdQLenPdf::16                     75                       # What read queue length does an incoming req see
system.mem_ctrls.rdQLenPdf::17                     70                       # What read queue length does an incoming req see
system.mem_ctrls.rdQLenPdf::18                     56                       # What read queue length does an incoming req see
system.mem_ctrls.rdQLenPdf::19                     57                       # What read queue length does an incoming req see
system.mem_ctrls.rdQLenPdf::20                     37                       # What read queue length does an incoming req see
system.mem_ctrls.rdQLenPdf::21                     33                       # What read queue length does an incoming req see
system.mem_ctrls.rdQLenPdf::22                     28                       # What read queue length does an incoming req see
system.mem_ctrls.rdQLenPdf::23                     25                       # What read queue length does an incoming req see
system.mem_ctrls.rdQLenPdf::24                     29                       # What read queue length does an incoming req see
system.mem_ctrls.rdQLenPdf::25                     28                       # What read queue length does an incoming req see
system.mem_ctrls.rdQLenPdf::26                     32                       # What read queue length does an incoming req see
system.mem_ctrls.rdQLenPdf::27                     36                       # What read queue length does an incoming req see
system.mem_ctrls.rdQLenPdf::28                     58                       # What read queue length does an incoming req see
system.mem_ctrls.rdQLenPdf::29                     58                       # What read queue length does an incoming req see
system.mem_ctrls.rdQLenPdf::30                   4749                       # What read queue length does an incoming req see
system.mem_ctrls.rdQLenPdf::31                   4741                       # What read queue length does an incoming req see
system.mem_ctrls.wrQLenPdf::0                       1                       # What write queue length does an incoming req see
system.mem_ctrls.wrQLenPdf::1                       1                       # What write queue length does an incoming req see
system.mem_ctrls.wrQLenPdf::2                       1                       # What write queue length does an incoming req see
system.mem_ctrls.wrQLenPdf::3                       1                       # What write queue length does an incoming req see
system.mem_ctrls.wrQLenPdf::4                       1                       # What write queue length does an incoming req see
system.mem_ctrls.wrQLenPdf::5                       1                       # What write queue length does an incoming req see
system.mem_ctrls.wrQLenPdf::6                       1                       # What write queue length does an incoming req see
system.mem_ctrls.wrQLenPdf::7                       1                       # What write queue length does an incoming req see
system.mem_ctrls.wrQLenPdf::8                       1                       # What write queue length does an incoming req see
system.mem_ctrls.wrQLenPdf::9                       1                       # What write queue length does an incoming req see
system.mem_ctrls.wrQLenPdf::10                      1                       # What write queue length does an incoming req see
system.mem_ctrls.wrQLenPdf::11                      1                       # What write queue length does an incoming req see
system.mem_ctrls.wrQLenPdf::12                      1                       # What write queue length does an incoming req see
system.mem_ctrls.wrQLenPdf::13                      1                       # What write queue length does an incoming req see
system.mem_ctrls.wrQLenPdf::14                      1                       # What write queue length does an incoming req see
system.mem_ctrls.wrQLenPdf::15                     98                       # What write queue length does an incoming req see
system.mem_ctrls.wrQLenPdf::16                    101                       # What write queue length does an incoming req see
system.mem_ctrls.wrQLenPdf::17                   2404                       # What write queue length does an incoming req see
system.mem_ctrls.wrQLenPdf::18                   2480                       # What write queue length does an incoming req see
system.mem_ctrls.wrQLenPdf::19                   2566                       # What write queue length does an incoming req see
system.mem_ctrls.wrQLenPdf::20                   2589                       # What write queue length does an incoming req see
system.mem_ctrls.wrQLenPdf::21                   2764                       # What write queue length does an incoming req see
system.mem_ctrls.wrQLenPdf::22                   2897                       # What write queue length does an incoming req see
system.mem_ctrls.wrQLenPdf::23                   3391                       # What write queue length does an incoming req see
system.mem_ctrls.wrQLenPdf::24                   3477                       # What write queue length does an incoming req see
system.mem_ctrls.wrQLenPdf::25                   3837                       # What write queue length does an incoming req see
system.mem_ctrls.wrQLenPdf::26                   3901                       # What write queue length does an incoming req see
system.mem_ctrls.wrQLenPdf::27                   4137                       # What write queue length does an incoming req see
system.mem_ctrls.wrQLenPdf::28                   4216                       # What write queue length does an incoming req see
system.mem_ctrls.wrQLenPdf::29                   4226                       # What write queue length does an incoming req see
system.mem_ctrls.wrQLenPdf::30                   4186                       # What write queue length does an incoming req see
system.mem_ctrls.wrQLenPdf::31                   4142                       # What write queue length does an incoming req see
system.mem_ctrls.wrQLenPdf::32                   4128                       # What write queue length does an incoming req see
system.mem_ctrls.wrQLenPdf::33                    697                       # What write queue length does an incoming req see
system.mem_ctrls.wrQLenPdf::34                    370                       # What write queue length does an incoming req see
system.mem_ctrls.wrQLenPdf::35                    245                       # What write queue length does an incoming req see
system.mem_ctrls.wrQLenPdf::36                    203                       # What write queue length does an incoming req see
system.mem_ctrls.wrQLenPdf::37                    146                       # What write queue length does an incoming req see
system.mem_ctrls.wrQLenPdf::38                    142                       # What write queue length does an incoming req see
system.mem_ctrls.wrQLenPdf::39                    147                       # What write queue length does an incoming req see
system.mem_ctrls.wrQLenPdf::40                    135                       # What write queue length does an incoming req see
system.mem_ctrls.wrQLenPdf::41                    150                       # What write queue length does an incoming req see
system.mem_ctrls.wrQLenPdf::42                    139                       # What write queue length does an incoming req see
system.mem_ctrls.wrQLenPdf::43                    164                       # What write queue length does an incoming req see
system.mem_ctrls.wrQLenPdf::44                    165                       # What write queue length does an incoming req see
system.mem_ctrls.wrQLenPdf::45                    207                       # What write queue length does an incoming req see
system.mem_ctrls.wrQLenPdf::46                    196                       # What write queue length does an incoming req see
system.mem_ctrls.wrQLenPdf::47                    245                       # What write queue length does an incoming req see
system.mem_ctrls.wrQLenPdf::48                    266                       # What write queue length does an incoming req see
system.mem_ctrls.wrQLenPdf::49                    367                       # What write queue length does an incoming req see
system.mem_ctrls.wrQLenPdf::50                    355                       # What write queue length does an incoming req see
system.mem_ctrls.wrQLenPdf::51                    446                       # What write queue length does an incoming req see
system.mem_ctrls.wrQLenPdf::52                    451                       # What write queue length does an incoming req see
system.mem_ctrls.wrQLenPdf::53                    536                       # What write queue length does an incoming req see
system.mem_ctrls.wrQLenPdf::54                    668                       # What write queue length does an incoming req see
system.mem_ctrls.wrQLenPdf::55                    618                       # What write queue length does an incoming req see
system.mem_ctrls.wrQLenPdf::56                    571                       # What write queue length does an incoming req see
system.mem_ctrls.wrQLenPdf::57                    348                       # What write queue length does an incoming req see
system.mem_ctrls.wrQLenPdf::58                    294                       # What write queue length does an incoming req see
system.mem_ctrls.wrQLenPdf::59                    186                       # What write queue length does an incoming req see
system.mem_ctrls.wrQLenPdf::60                    166                       # What write queue length does an incoming req see
system.mem_ctrls.wrQLenPdf::61                    116                       # What write queue length does an incoming req see
system.mem_ctrls.wrQLenPdf::62                    532                       # What write queue length does an incoming req see
system.mem_ctrls.wrQLenPdf::63                    446                       # What write queue length does an incoming req see
system.mem_ctrls.bytesPerActivate::samples        20944                       # Bytes accessed per row activation
system.mem_ctrls.bytesPerActivate::mean    531.770817                       # Bytes accessed per row activation
system.mem_ctrls.bytesPerActivate::gmean   384.960942                       # Bytes accessed per row activation
system.mem_ctrls.bytesPerActivate::stdev   371.444596                       # Bytes accessed per row activation
system.mem_ctrls.bytesPerActivate::0-127          297      1.42%      1.42% # Bytes accessed per row activation
system.mem_ctrls.bytesPerActivate::128-255         5983     28.57%     29.98% # Bytes accessed per row activation
system.mem_ctrls.bytesPerActivate::256-383         2679     12.79%     42.78% # Bytes accessed per row activation
system.mem_ctrls.bytesPerActivate::384-511         2057      9.82%     52.60% # Bytes accessed per row activation
system.mem_ctrls.bytesPerActivate::512-639         1190      5.68%     58.28% # Bytes accessed per row activation
system.mem_ctrls.bytesPerActivate::640-767         1060      5.06%     63.34% # Bytes accessed per row activation
system.mem_ctrls.bytesPerActivate::768-895          875      4.18%     67.52% # Bytes accessed per row activation
system.mem_ctrls.bytesPerActivate::896-1023          950      4.54%     72.05% # Bytes accessed per row activation
system.mem_ctrls.bytesPerActivate::1024-1151         5853     27.95%    100.00% # Bytes accessed per row activation
system.mem_ctrls.bytesPerActivate::total        20944                       # Bytes accessed per row activation
system.mem_ctrls.rdPerTurnAround::samples         4062                       # Reads before turning the bus around for writes
system.mem_ctrls.rdPerTurnAround::mean      26.792959                       # Reads before turning the bus around for writes
system.mem_ctrls.rdPerTurnAround::gmean     21.242313                       # Reads before turning the bus around for writes
system.mem_ctrls.rdPerTurnAround::stdev     70.875742                       # Reads before turning the bus around for writes
system.mem_ctrls.rdPerTurnAround::0-127          4039     99.43%     99.43% # Reads before turning the bus around for writes
system.mem_ctrls.rdPerTurnAround::128-255           11      0.27%     99.70% # Reads before turning the bus around for writes
system.mem_ctrls.rdPerTurnAround::256-383            8      0.20%     99.90% # Reads before turning the bus around for writes
system.mem_ctrls.rdPerTurnAround::384-511            1      0.02%     99.93% # Reads before turning the bus around for writes
system.mem_ctrls.rdPerTurnAround::640-767            1      0.02%     99.95% # Reads before turning the bus around for writes
system.mem_ctrls.rdPerTurnAround::1920-2047            1      0.02%     99.98% # Reads before turning the bus around for writes
system.mem_ctrls.rdPerTurnAround::3712-3839            1      0.02%    100.00% # Reads before turning the bus around for writes
system.mem_ctrls.rdPerTurnAround::total          4062                       # Reads before turning the bus around for writes
system.mem_ctrls.wrPerTurnAround::samples         4062                       # Writes before turning the bus around for reads
system.mem_ctrls.wrPerTurnAround::mean      16.061300                       # Writes before turning the bus around for reads
system.mem_ctrls.wrPerTurnAround::gmean     16.055573                       # Writes before turning the bus around for reads
system.mem_ctrls.wrPerTurnAround::stdev      0.493677                       # Writes before turning the bus around for reads
system.mem_ctrls.wrPerTurnAround::16             3957     97.42%     97.42% # Writes before turning the bus around for reads
system.mem_ctrls.wrPerTurnAround::17                2      0.05%     97.46% # Writes before turning the bus around for reads
system.mem_ctrls.wrPerTurnAround::18               92      2.26%     99.73% # Writes before turning the bus around for reads
system.mem_ctrls.wrPerTurnAround::19                7      0.17%     99.90% # Writes before turning the bus around for reads
system.mem_ctrls.wrPerTurnAround::20                1      0.02%     99.93% # Writes before turning the bus around for reads
system.mem_ctrls.wrPerTurnAround::22                1      0.02%     99.95% # Writes before turning the bus around for reads
system.mem_ctrls.wrPerTurnAround::30                1      0.02%     99.98% # Writes before turning the bus around for reads
system.mem_ctrls.wrPerTurnAround::34                1      0.02%    100.00% # Writes before turning the bus around for reads
system.mem_ctrls.wrPerTurnAround::total          4062                       # Writes before turning the bus around for reads
system.mem_ctrls.totQLat                   7234471084                       # Total ticks spent queuing
system.mem_ctrls.totMemAccLat              9275427334                       # Total ticks spent from burst creation until serviced by the DRAM
system.mem_ctrls.totBusLat                  544255000                       # Total ticks spent in databus transfers
system.mem_ctrls.avgQLat                     66462.15                       # Average queueing delay per DRAM burst
system.mem_ctrls.avgBusLat                    5000.00                       # Average bus latency per DRAM burst
system.mem_ctrls.avgMemAccLat                85212.15                       # Average memory access latency per DRAM burst
system.mem_ctrls.avgRdBW                       194.89                       # Average DRAM read bandwidth in MiByte/s
system.mem_ctrls.avgWrBW                       116.81                       # Average achieved write bandwidth in MiByte/s
system.mem_ctrls.avgRdBWSys                    195.12                       # Average system read bandwidth in MiByte/s
system.mem_ctrls.avgWrBWSys                    116.87                       # Average system write bandwidth in MiByte/s
system.mem_ctrls.peakBW                      12800.00                       # Theoretical peak bandwidth in MiByte/s
system.mem_ctrls.busUtil                         2.44                       # Data bus utilization in percentage
system.mem_ctrls.busUtilRead                     1.52                       # Data bus utilization in percentage for reads
system.mem_ctrls.busUtilWrite                    0.91                       # Data bus utilization in percentage for writes
system.mem_ctrls.avgRdQLen                       2.20                       # Average read queue length when enqueuing
system.mem_ctrls.avgWrQLen                      25.35                       # Average write queue length when enqueuing
system.mem_ctrls.readRowHits                    94859                       # Number of row buffer hits during reads
system.mem_ctrls.writeRowHits                   58277                       # Number of row buffer hits during writes
system.mem_ctrls.readRowHitRate                 87.15                       # Row buffer hit rate for reads
system.mem_ctrls.writeRowHitRate                89.28                       # Row buffer hit rate for writes
system.mem_ctrls.avgGap                     410273.90                       # Average gap between requests
system.mem_ctrls.pageHitRate                    87.95                       # Row buffer hit rate, read and write combined
system.mem_ctrls_0.actEnergy                 78631560                       # Energy for activate commands per rank (pJ)
system.mem_ctrls_0.preEnergy                 42904125                       # Energy for precharge commands per rank (pJ)
system.mem_ctrls_0.readEnergy               430138800                       # Energy for read commands per rank (pJ)
system.mem_ctrls_0.writeEnergy              219665520                       # Energy for write commands per rank (pJ)
system.mem_ctrls_0.refreshEnergy           2334290400                       # Energy for refresh commands per rank (pJ)
system.mem_ctrls_0.actBackEnergy           8140862835                       # Energy for active background per rank (pJ)
system.mem_ctrls_0.preBackEnergy          14302382250                       # Energy for precharge background per rank (pJ)
system.mem_ctrls_0.totalEnergy            25548875490                       # Total energy per rank (pJ)
system.mem_ctrls_0.averagePower            714.870821                       # Core power per rank (mW)
system.mem_ctrls_0.memoryStateTime::IDLE  23737489001                       # Time in different power states
system.mem_ctrls_0.memoryStateTime::REF    1193400000                       # Time in different power states
system.mem_ctrls_0.memoryStateTime::PRE_PDN            0                       # Time in different power states
system.mem_ctrls_0.memoryStateTime::ACT   10808768999                       # Time in different power states
system.mem_ctrls_0.memoryStateTime::ACT_PDN            0                       # Time in different power states
system.mem_ctrls_1.actEnergy                 79576560                       # Energy for activate commands per rank (pJ)
system.mem_ctrls_1.preEnergy                 43419750                       # Energy for precharge commands per rank (pJ)
system.mem_ctrls_1.readEnergy               418212600                       # Energy for read commands per rank (pJ)
system.mem_ctrls_1.writeEnergy              202681440                       # Energy for write commands per rank (pJ)
system.mem_ctrls_1.refreshEnergy           2334290400                       # Energy for refresh commands per rank (pJ)
system.mem_ctrls_1.actBackEnergy           8537596515                       # Energy for active background per rank (pJ)
system.mem_ctrls_1.preBackEnergy          13954368750                       # Energy for precharge background per rank (pJ)
system.mem_ctrls_1.totalEnergy            25570146015                       # Total energy per rank (pJ)
system.mem_ctrls_1.averagePower            715.466031                       # Core power per rank (mW)
system.mem_ctrls_1.memoryStateTime::IDLE  23161981500                       # Time in different power states
system.mem_ctrls_1.memoryStateTime::REF    1193400000                       # Time in different power states
system.mem_ctrls_1.memoryStateTime::PRE_PDN            0                       # Time in different power states
system.mem_ctrls_1.memoryStateTime::ACT   11383779750                       # Time in different power states
system.mem_ctrls_1.memoryStateTime::ACT_PDN            0                       # Time in different power states
system.ruby_clk_domain.clock                      500                       # Clock period in ticks
system.ruby.phys_mem.bytes_read::cpu0.inst    197969856                       # Number of bytes read from this memory
system.ruby.phys_mem.bytes_read::cpu0.data     27235256                       # Number of bytes read from this memory
system.ruby.phys_mem.bytes_read::gpu.ce       1163612                       # Number of bytes read from this memory
system.ruby.phys_mem.bytes_read::gpu.shader_cores0.data       560256                       # Number of bytes read from this memory
system.ruby.phys_mem.bytes_read::gpu.shader_cores0.inst          208                       # Number of bytes read from this memory
system.ruby.phys_mem.bytes_read::gpu.shader_cores1.data       552032                       # Number of bytes read from this memory
system.ruby.phys_mem.bytes_read::gpu.shader_cores1.inst          192                       # Number of bytes read from this memory
system.ruby.phys_mem.bytes_read::gpu.shader_cores2.data       559232                       # Number of bytes read from this memory
system.ruby.phys_mem.bytes_read::gpu.shader_cores2.inst          192                       # Number of bytes read from this memory
system.ruby.phys_mem.bytes_read::gpu.shader_cores3.data       565536                       # Number of bytes read from this memory
system.ruby.phys_mem.bytes_read::gpu.shader_cores3.inst          192                       # Number of bytes read from this memory
system.ruby.phys_mem.bytes_read::total      228606564                       # Number of bytes read from this memory
system.ruby.phys_mem.bytes_inst_read::cpu0.inst    197969856                       # Number of instructions bytes read from this memory
system.ruby.phys_mem.bytes_inst_read::gpu.shader_cores0.inst          208                       # Number of instructions bytes read from this memory
system.ruby.phys_mem.bytes_inst_read::gpu.shader_cores1.inst          192                       # Number of instructions bytes read from this memory
system.ruby.phys_mem.bytes_inst_read::gpu.shader_cores2.inst          192                       # Number of instructions bytes read from this memory
system.ruby.phys_mem.bytes_inst_read::gpu.shader_cores3.inst          192                       # Number of instructions bytes read from this memory
system.ruby.phys_mem.bytes_inst_read::total    197970640                       # Number of instructions bytes read from this memory
system.ruby.phys_mem.bytes_written::cpu0.data     18711631                       # Number of bytes written to this memory
system.ruby.phys_mem.bytes_written::gpu.ce      1163612                       # Number of bytes written to this memory
system.ruby.phys_mem.bytes_written::gpu.shader_cores0.data       135296                       # Number of bytes written to this memory
system.ruby.phys_mem.bytes_written::gpu.shader_cores1.data       133120                       # Number of bytes written to this memory
system.ruby.phys_mem.bytes_written::gpu.shader_cores2.data       135168                       # Number of bytes written to this memory
system.ruby.phys_mem.bytes_written::gpu.shader_cores3.data       137216                       # Number of bytes written to this memory
system.ruby.phys_mem.bytes_written::total     20416043                       # Number of bytes written to this memory
system.ruby.phys_mem.num_reads::cpu0.inst     24746232                       # Number of read requests responded to by this memory
system.ruby.phys_mem.num_reads::cpu0.data      4360884                       # Number of read requests responded to by this memory
system.ruby.phys_mem.num_reads::gpu.ce           9096                       # Number of read requests responded to by this memory
system.ruby.phys_mem.num_reads::gpu.shader_cores0.data         6774                       # Number of read requests responded to by this memory
system.ruby.phys_mem.num_reads::gpu.shader_cores0.inst           13                       # Number of read requests responded to by this memory
system.ruby.phys_mem.num_reads::gpu.shader_cores1.data         6672                       # Number of read requests responded to by this memory
system.ruby.phys_mem.num_reads::gpu.shader_cores1.inst           12                       # Number of read requests responded to by this memory
system.ruby.phys_mem.num_reads::gpu.shader_cores2.data         6754                       # Number of read requests responded to by this memory
system.ruby.phys_mem.num_reads::gpu.shader_cores2.inst           12                       # Number of read requests responded to by this memory
system.ruby.phys_mem.num_reads::gpu.shader_cores3.data         6813                       # Number of read requests responded to by this memory
system.ruby.phys_mem.num_reads::gpu.shader_cores3.inst           12                       # Number of read requests responded to by this memory
system.ruby.phys_mem.num_reads::total        29143274                       # Number of read requests responded to by this memory
system.ruby.phys_mem.num_writes::cpu0.data      2977570                       # Number of write requests responded to by this memory
system.ruby.phys_mem.num_writes::gpu.ce          9095                       # Number of write requests responded to by this memory
system.ruby.phys_mem.num_writes::gpu.shader_cores0.data         3506                       # Number of write requests responded to by this memory
system.ruby.phys_mem.num_writes::gpu.shader_cores1.data         3476                       # Number of write requests responded to by this memory
system.ruby.phys_mem.num_writes::gpu.shader_cores2.data         3516                       # Number of write requests responded to by this memory
system.ruby.phys_mem.num_writes::gpu.shader_cores3.data         3584                       # Number of write requests responded to by this memory
system.ruby.phys_mem.num_writes::total        3000747                       # Number of write requests responded to by this memory
system.ruby.phys_mem.bw_read::cpu0.inst    5538424016                       # Total read bandwidth from this memory (bytes/s)
system.ruby.phys_mem.bw_read::cpu0.data     761936180                       # Total read bandwidth from this memory (bytes/s)
system.ruby.phys_mem.bw_read::gpu.ce         32553323                       # Total read bandwidth from this memory (bytes/s)
system.ruby.phys_mem.bw_read::gpu.shader_cores0.data     15673777                       # Total read bandwidth from this memory (bytes/s)
system.ruby.phys_mem.bw_read::gpu.shader_cores0.inst         5819                       # Total read bandwidth from this memory (bytes/s)
system.ruby.phys_mem.bw_read::gpu.shader_cores1.data     15443701                       # Total read bandwidth from this memory (bytes/s)
system.ruby.phys_mem.bw_read::gpu.shader_cores1.inst         5371                       # Total read bandwidth from this memory (bytes/s)
system.ruby.phys_mem.bw_read::gpu.shader_cores2.data     15645129                       # Total read bandwidth from this memory (bytes/s)
system.ruby.phys_mem.bw_read::gpu.shader_cores2.inst         5371                       # Total read bandwidth from this memory (bytes/s)
system.ruby.phys_mem.bw_read::gpu.shader_cores3.data     15821490                       # Total read bandwidth from this memory (bytes/s)
system.ruby.phys_mem.bw_read::gpu.shader_cores3.inst         5371                       # Total read bandwidth from this memory (bytes/s)
system.ruby.phys_mem.bw_read::total        6395519550                       # Total read bandwidth from this memory (bytes/s)
system.ruby.phys_mem.bw_inst_read::cpu0.inst   5538424016                       # Instruction read bandwidth from this memory (bytes/s)
system.ruby.phys_mem.bw_inst_read::gpu.shader_cores0.inst         5819                       # Instruction read bandwidth from this memory (bytes/s)
system.ruby.phys_mem.bw_inst_read::gpu.shader_cores1.inst         5371                       # Instruction read bandwidth from this memory (bytes/s)
system.ruby.phys_mem.bw_inst_read::gpu.shader_cores2.inst         5371                       # Instruction read bandwidth from this memory (bytes/s)
system.ruby.phys_mem.bw_inst_read::gpu.shader_cores3.inst         5371                       # Instruction read bandwidth from this memory (bytes/s)
system.ruby.phys_mem.bw_inst_read::total   5538445949                       # Instruction read bandwidth from this memory (bytes/s)
system.ruby.phys_mem.bw_write::cpu0.data    523478415                       # Write bandwidth from this memory (bytes/s)
system.ruby.phys_mem.bw_write::gpu.ce        32553323                       # Write bandwidth from this memory (bytes/s)
system.ruby.phys_mem.bw_write::gpu.shader_cores0.data      3785054                       # Write bandwidth from this memory (bytes/s)
system.ruby.phys_mem.bw_write::gpu.shader_cores1.data      3724178                       # Write bandwidth from this memory (bytes/s)
system.ruby.phys_mem.bw_write::gpu.shader_cores2.data      3781473                       # Write bandwidth from this memory (bytes/s)
system.ruby.phys_mem.bw_write::gpu.shader_cores3.data      3838768                       # Write bandwidth from this memory (bytes/s)
system.ruby.phys_mem.bw_write::total        571161212                       # Write bandwidth from this memory (bytes/s)
system.ruby.phys_mem.bw_total::cpu0.inst   5538424016                       # Total bandwidth to/from this memory (bytes/s)
system.ruby.phys_mem.bw_total::cpu0.data   1285414596                       # Total bandwidth to/from this memory (bytes/s)
system.ruby.phys_mem.bw_total::gpu.ce        65106646                       # Total bandwidth to/from this memory (bytes/s)
system.ruby.phys_mem.bw_total::gpu.shader_cores0.data     19458831                       # Total bandwidth to/from this memory (bytes/s)
system.ruby.phys_mem.bw_total::gpu.shader_cores0.inst         5819                       # Total bandwidth to/from this memory (bytes/s)
system.ruby.phys_mem.bw_total::gpu.shader_cores1.data     19167879                       # Total bandwidth to/from this memory (bytes/s)
system.ruby.phys_mem.bw_total::gpu.shader_cores1.inst         5371                       # Total bandwidth to/from this memory (bytes/s)
system.ruby.phys_mem.bw_total::gpu.shader_cores2.data     19426602                       # Total bandwidth to/from this memory (bytes/s)
system.ruby.phys_mem.bw_total::gpu.shader_cores2.inst         5371                       # Total bandwidth to/from this memory (bytes/s)
system.ruby.phys_mem.bw_total::gpu.shader_cores3.data     19660259                       # Total bandwidth to/from this memory (bytes/s)
system.ruby.phys_mem.bw_total::gpu.shader_cores3.inst         5371                       # Total bandwidth to/from this memory (bytes/s)
system.ruby.phys_mem.bw_total::total       6966680761                       # Total bandwidth to/from this memory (bytes/s)
system.cpu_voltage_domain.voltage                   1                       # Voltage in Volts
system.cpu_clk_domain.clock                       500                       # Clock period in ticks
system.cpu0.apic_clk_domain.clock                8000                       # Clock period in ticks
system.cpu0.workload.num_syscalls                  58                       # Number of system calls
system.cpu0.numCycles                        71489599                       # number of cpu cycles simulated
system.cpu0.numWorkItemsStarted                     1                       # number of work items this cpu started
system.cpu0.numWorkItemsCompleted                   1                       # number of work items this cpu completed
system.cpu0.committedInsts                   18562921                       # Number of instructions committed
system.cpu0.committedOps                     36244844                       # Number of ops (including micro ops) committed
system.cpu0.num_int_alu_accesses             35643189                       # Number of integer alu accesses
system.cpu0.num_fp_alu_accesses               1011858                       # Number of float alu accesses
system.cpu0.num_func_calls                     866427                       # number of times a function call or return occured
system.cpu0.num_conditional_control_insts      3177416                       # number of instructions that are conditional controls
system.cpu0.num_int_insts                    35643189                       # number of integer instructions
system.cpu0.num_fp_insts                      1011858                       # number of float instructions
system.cpu0.num_int_register_reads           67326970                       # number of times the integer registers were read
system.cpu0.num_int_register_writes          28152331                       # number of times the integer registers were written
system.cpu0.num_fp_register_reads             1431115                       # number of times the floating registers were read
system.cpu0.num_fp_register_writes             723165                       # number of times the floating registers were written
system.cpu0.num_cc_register_reads            22059998                       # number of times the CC registers were read
system.cpu0.num_cc_register_writes           12223463                       # number of times the CC registers were written
system.cpu0.num_mem_refs                      7338317                       # number of memory refs
system.cpu0.num_load_insts                    4360748                       # Number of load instructions
system.cpu0.num_store_insts                   2977569                       # Number of store instructions
system.cpu0.num_idle_cycles              923111.711974                       # Number of idle cycles
system.cpu0.num_busy_cycles              70566487.288026                       # Number of busy cycles
system.cpu0.not_idle_fraction                0.987087                       # Percentage of non-idle cycles
system.cpu0.idle_fraction                    0.012913                       # Percentage of idle cycles
system.cpu0.Branches                          4379377                       # Number of branches fetched
system.cpu0.op_class::No_OpClass               110858      0.31%      0.31% # Class of executed instruction
system.cpu0.op_class::IntAlu                 28163705     77.70%     78.01% # Class of executed instruction
system.cpu0.op_class::IntMult                   54917      0.15%     78.16% # Class of executed instruction
system.cpu0.op_class::IntDiv                      686      0.00%     78.16% # Class of executed instruction
system.cpu0.op_class::FloatAdd                 576361      1.59%     79.75% # Class of executed instruction
system.cpu0.op_class::FloatCmp                      0      0.00%     79.75% # Class of executed instruction
system.cpu0.op_class::FloatCvt                      0      0.00%     79.75% # Class of executed instruction
system.cpu0.op_class::FloatMult                     0      0.00%     79.75% # Class of executed instruction
system.cpu0.op_class::FloatDiv                      0      0.00%     79.75% # Class of executed instruction
system.cpu0.op_class::FloatSqrt                     0      0.00%     79.75% # Class of executed instruction
system.cpu0.op_class::SimdAdd                       0      0.00%     79.75% # Class of executed instruction
system.cpu0.op_class::SimdAddAcc                    0      0.00%     79.75% # Class of executed instruction
system.cpu0.op_class::SimdAlu                       0      0.00%     79.75% # Class of executed instruction
system.cpu0.op_class::SimdCmp                       0      0.00%     79.75% # Class of executed instruction
system.cpu0.op_class::SimdCvt                       0      0.00%     79.75% # Class of executed instruction
system.cpu0.op_class::SimdMisc                      0      0.00%     79.75% # Class of executed instruction
system.cpu0.op_class::SimdMult                      0      0.00%     79.75% # Class of executed instruction
system.cpu0.op_class::SimdMultAcc                   0      0.00%     79.75% # Class of executed instruction
system.cpu0.op_class::SimdShift                     0      0.00%     79.75% # Class of executed instruction
system.cpu0.op_class::SimdShiftAcc                  0      0.00%     79.75% # Class of executed instruction
system.cpu0.op_class::SimdSqrt                      0      0.00%     79.75% # Class of executed instruction
system.cpu0.op_class::SimdFloatAdd                  0      0.00%     79.75% # Class of executed instruction
system.cpu0.op_class::SimdFloatAlu                  0      0.00%     79.75% # Class of executed instruction
system.cpu0.op_class::SimdFloatCmp                  0      0.00%     79.75% # Class of executed instruction
system.cpu0.op_class::SimdFloatCvt                  0      0.00%     79.75% # Class of executed instruction
system.cpu0.op_class::SimdFloatDiv                  0      0.00%     79.75% # Class of executed instruction
system.cpu0.op_class::SimdFloatMisc                 0      0.00%     79.75% # Class of executed instruction
system.cpu0.op_class::SimdFloatMult                 0      0.00%     79.75% # Class of executed instruction
system.cpu0.op_class::SimdFloatMultAcc              0      0.00%     79.75% # Class of executed instruction
system.cpu0.op_class::SimdFloatSqrt                 0      0.00%     79.75% # Class of executed instruction
system.cpu0.op_class::MemRead                 4360748     12.03%     91.78% # Class of executed instruction
system.cpu0.op_class::MemWrite                2977569      8.22%    100.00% # Class of executed instruction
system.cpu0.op_class::IprAccess                     0      0.00%    100.00% # Class of executed instruction
system.cpu0.op_class::InstPrefetch                  0      0.00%    100.00% # Class of executed instruction
system.cpu0.op_class::total                  36244844                       # Class of executed instruction
system.cpu1.apic_clk_domain.clock                8000                       # Clock period in ticks
system.cpu1.numCycles                               0                       # number of cpu cycles simulated
system.cpu1.numWorkItemsStarted                     0                       # number of work items this cpu started
system.cpu1.numWorkItemsCompleted                   0                       # number of work items this cpu completed
system.cpu1.committedInsts                          0                       # Number of instructions committed
system.cpu1.committedOps                            0                       # Number of ops (including micro ops) committed
system.cpu1.num_int_alu_accesses                    0                       # Number of integer alu accesses
system.cpu1.num_fp_alu_accesses                     0                       # Number of float alu accesses
system.cpu1.num_func_calls                          0                       # number of times a function call or return occured
system.cpu1.num_conditional_control_insts            0                       # number of instructions that are conditional controls
system.cpu1.num_int_insts                           0                       # number of integer instructions
system.cpu1.num_fp_insts                            0                       # number of float instructions
system.cpu1.num_int_register_reads                  0                       # number of times the integer registers were read
system.cpu1.num_int_register_writes                 0                       # number of times the integer registers were written
system.cpu1.num_fp_register_reads                   0                       # number of times the floating registers were read
system.cpu1.num_fp_register_writes                  0                       # number of times the floating registers were written
system.cpu1.num_mem_refs                            0                       # number of memory refs
system.cpu1.num_load_insts                          0                       # Number of load instructions
system.cpu1.num_store_insts                         0                       # Number of store instructions
system.cpu1.num_idle_cycles                         0                       # Number of idle cycles
system.cpu1.num_busy_cycles                         0                       # Number of busy cycles
system.cpu1.not_idle_fraction                       0                       # Percentage of non-idle cycles
system.cpu1.idle_fraction                           1                       # Percentage of idle cycles
system.cpu1.op_class::No_OpClass                    0                       # Class of executed instruction
system.cpu1.op_class::IntAlu                        0                       # Class of executed instruction
system.cpu1.op_class::IntMult                       0                       # Class of executed instruction
system.cpu1.op_class::IntDiv                        0                       # Class of executed instruction
system.cpu1.op_class::FloatAdd                      0                       # Class of executed instruction
system.cpu1.op_class::FloatCmp                      0                       # Class of executed instruction
system.cpu1.op_class::FloatCvt                      0                       # Class of executed instruction
system.cpu1.op_class::FloatMult                     0                       # Class of executed instruction
system.cpu1.op_class::FloatDiv                      0                       # Class of executed instruction
system.cpu1.op_class::FloatSqrt                     0                       # Class of executed instruction
system.cpu1.op_class::SimdAdd                       0                       # Class of executed instruction
system.cpu1.op_class::SimdAddAcc                    0                       # Class of executed instruction
system.cpu1.op_class::SimdAlu                       0                       # Class of executed instruction
system.cpu1.op_class::SimdCmp                       0                       # Class of executed instruction
system.cpu1.op_class::SimdCvt                       0                       # Class of executed instruction
system.cpu1.op_class::SimdMisc                      0                       # Class of executed instruction
system.cpu1.op_class::SimdMult                      0                       # Class of executed instruction
system.cpu1.op_class::SimdMultAcc                   0                       # Class of executed instruction
system.cpu1.op_class::SimdShift                     0                       # Class of executed instruction
system.cpu1.op_class::SimdShiftAcc                  0                       # Class of executed instruction
system.cpu1.op_class::SimdSqrt                      0                       # Class of executed instruction
system.cpu1.op_class::SimdFloatAdd                  0                       # Class of executed instruction
system.cpu1.op_class::SimdFloatAlu                  0                       # Class of executed instruction
system.cpu1.op_class::SimdFloatCmp                  0                       # Class of executed instruction
system.cpu1.op_class::SimdFloatCvt                  0                       # Class of executed instruction
system.cpu1.op_class::SimdFloatDiv                  0                       # Class of executed instruction
system.cpu1.op_class::SimdFloatMisc                 0                       # Class of executed instruction
system.cpu1.op_class::SimdFloatMult                 0                       # Class of executed instruction
system.cpu1.op_class::SimdFloatMultAcc              0                       # Class of executed instruction
system.cpu1.op_class::SimdFloatSqrt                 0                       # Class of executed instruction
system.cpu1.op_class::MemRead                       0                       # Class of executed instruction
system.cpu1.op_class::MemWrite                      0                       # Class of executed instruction
system.cpu1.op_class::IprAccess                     0                       # Class of executed instruction
system.cpu1.op_class::InstPrefetch                  0                       # Class of executed instruction
system.cpu1.op_class::total                         0                       # Class of executed instruction
system.gpu.clk_domain.voltage_domain.voltage            1                       # Voltage in Volts
system.gpu.clk_domain.clock                      1429                       # Clock period in ticks
system.gpu.dram_wrapper.clk_domain.clock          541                       # Clock period in ticks
system.gpu.icnt_wrapper.clk_domain.clock         2858                       # Clock period in ticks
system.ruby.delayHist::bucket_size                128                       # delay histogram for all message
system.ruby.delayHist::max_bucket                1279                       # delay histogram for all message
system.ruby.delayHist::samples                 577113                       # delay histogram for all message
system.ruby.delayHist::mean                  3.128552                       # delay histogram for all message
system.ruby.delayHist::stdev                17.195671                       # delay histogram for all message
system.ruby.delayHist                    |      576179     99.84%     99.84% |         476      0.08%     99.92% |         221      0.04%     99.96% |          84      0.01%     99.97% |          43      0.01%     99.98% |          78      0.01%     99.99% |          25      0.00%    100.00% |           7      0.00%    100.00% |           0      0.00%    100.00% |           0      0.00%    100.00% # delay histogram for all message
system.ruby.delayHist::total                   577113                       # delay histogram for all message
system.ruby.outstanding_req_hist::bucket_size            8                      
system.ruby.outstanding_req_hist::max_bucket           79                      
system.ruby.outstanding_req_hist::samples     32144021                      
system.ruby.outstanding_req_hist::mean       1.058781                      
system.ruby.outstanding_req_hist::gmean      1.005535                      
system.ruby.outstanding_req_hist::stdev      1.688838                      
system.ruby.outstanding_req_hist         |    32095536     99.85%     99.85% |        5303      0.02%     99.87% |        7935      0.02%     99.89% |        8696      0.03%     99.92% |        6848      0.02%     99.94% |        1770      0.01%     99.94% |         181      0.00%     99.94% |          89      0.00%     99.95% |       17663      0.05%    100.00% |           0      0.00%    100.00%
system.ruby.outstanding_req_hist::total      32144021                      
system.ruby.latency_hist::bucket_size            1024                      
system.ruby.latency_hist::max_bucket            10239                      
system.ruby.latency_hist::samples            32144021                      
system.ruby.latency_hist::mean               3.356450                      
system.ruby.latency_hist::gmean              1.017685                      
system.ruby.latency_hist::stdev             88.360056                      
system.ruby.latency_hist                 |    32122166     99.93%     99.93% |        4424      0.01%     99.95% |        9030      0.03%     99.97% |        3633      0.01%     99.99% |        2568      0.01%     99.99% |        1561      0.00%    100.00% |         539      0.00%    100.00% |          94      0.00%    100.00% |           6      0.00%    100.00% |           0      0.00%    100.00%
system.ruby.latency_hist::total              32144021                      
system.ruby.hit_latency_hist::bucket_size            1                      
system.ruby.hit_latency_hist::max_bucket            9                      
system.ruby.hit_latency_hist::samples        32013219                      
system.ruby.hit_latency_hist::mean                  1                      
system.ruby.hit_latency_hist::gmean                 1                      
system.ruby.hit_latency_hist             |           0      0.00%      0.00% |    32013219    100.00%    100.00% |           0      0.00%    100.00% |           0      0.00%    100.00% |           0      0.00%    100.00% |           0      0.00%    100.00% |           0      0.00%    100.00% |           0      0.00%    100.00% |           0      0.00%    100.00% |           0      0.00%    100.00%
system.ruby.hit_latency_hist::total          32013219                      
system.ruby.miss_latency_hist::bucket_size         1024                      
system.ruby.miss_latency_hist::max_bucket        10239                      
system.ruby.miss_latency_hist::samples         130802                      
system.ruby.miss_latency_hist::mean        580.087315                      
system.ruby.miss_latency_hist::gmean        74.287005                      
system.ruby.miss_latency_hist::stdev      1258.846081                      
system.ruby.miss_latency_hist            |      108947     83.29%     83.29% |        4424      3.38%     86.67% |        9030      6.90%     93.58% |        3633      2.78%     96.35% |        2568      1.96%     98.32% |        1561      1.19%     99.51% |         539      0.41%     99.92% |          94      0.07%    100.00% |           6      0.00%    100.00% |           0      0.00%    100.00%
system.ruby.miss_latency_hist::total           130802                      
system.gpu.shader_mmu.numPagefaults                 0                       # Number of Pagefaults
system.gpu.shader_mmu.numPagewalks               2886                       # Number of Pagewalks
system.gpu.shader_mmu.totalRequests              2886                       # Total number of requests
system.gpu.shader_mmu.l2hits                        0                       # Hits in the shared L2
system.gpu.shader_mmu.prefetchHits                  0                       # Number of prefetch hits
system.gpu.shader_mmu.numPrefetches                 0                       # Number of prefetchs
system.gpu.shader_mmu.prefetchFaults                0                       # Number of faults caused by prefetches
system.gpu.shader_mmu.pagefaultLatency::samples            0                       # Latency to complete the pagefault
system.gpu.shader_mmu.pagefaultLatency::mean          nan                       # Latency to complete the pagefault
system.gpu.shader_mmu.pagefaultLatency::gmean          nan                       # Latency to complete the pagefault
system.gpu.shader_mmu.pagefaultLatency::stdev          nan                       # Latency to complete the pagefault
system.gpu.shader_mmu.pagefaultLatency::0            0                       # Latency to complete the pagefault
system.gpu.shader_mmu.pagefaultLatency::1            0                       # Latency to complete the pagefault
system.gpu.shader_mmu.pagefaultLatency::2            0                       # Latency to complete the pagefault
system.gpu.shader_mmu.pagefaultLatency::3            0                       # Latency to complete the pagefault
system.gpu.shader_mmu.pagefaultLatency::4            0                       # Latency to complete the pagefault
system.gpu.shader_mmu.pagefaultLatency::5            0                       # Latency to complete the pagefault
system.gpu.shader_mmu.pagefaultLatency::6            0                       # Latency to complete the pagefault
system.gpu.shader_mmu.pagefaultLatency::7            0                       # Latency to complete the pagefault
system.gpu.shader_mmu.pagefaultLatency::8            0                       # Latency to complete the pagefault
system.gpu.shader_mmu.pagefaultLatency::9            0                       # Latency to complete the pagefault
system.gpu.shader_mmu.pagefaultLatency::10            0                       # Latency to complete the pagefault
system.gpu.shader_mmu.pagefaultLatency::11            0                       # Latency to complete the pagefault
system.gpu.shader_mmu.pagefaultLatency::12            0                       # Latency to complete the pagefault
system.gpu.shader_mmu.pagefaultLatency::13            0                       # Latency to complete the pagefault
system.gpu.shader_mmu.pagefaultLatency::14            0                       # Latency to complete the pagefault
system.gpu.shader_mmu.pagefaultLatency::15            0                       # Latency to complete the pagefault
system.gpu.shader_mmu.pagefaultLatency::16            0                       # Latency to complete the pagefault
system.gpu.shader_mmu.pagefaultLatency::17            0                       # Latency to complete the pagefault
system.gpu.shader_mmu.pagefaultLatency::18            0                       # Latency to complete the pagefault
system.gpu.shader_mmu.pagefaultLatency::19            0                       # Latency to complete the pagefault
system.gpu.shader_mmu.pagefaultLatency::20            0                       # Latency to complete the pagefault
system.gpu.shader_mmu.pagefaultLatency::21            0                       # Latency to complete the pagefault
system.gpu.shader_mmu.pagefaultLatency::22            0                       # Latency to complete the pagefault
system.gpu.shader_mmu.pagefaultLatency::23            0                       # Latency to complete the pagefault
system.gpu.shader_mmu.pagefaultLatency::24            0                       # Latency to complete the pagefault
system.gpu.shader_mmu.pagefaultLatency::25            0                       # Latency to complete the pagefault
system.gpu.shader_mmu.pagefaultLatency::26            0                       # Latency to complete the pagefault
system.gpu.shader_mmu.pagefaultLatency::27            0                       # Latency to complete the pagefault
system.gpu.shader_mmu.pagefaultLatency::28            0                       # Latency to complete the pagefault
system.gpu.shader_mmu.pagefaultLatency::29            0                       # Latency to complete the pagefault
system.gpu.shader_mmu.pagefaultLatency::30            0                       # Latency to complete the pagefault
system.gpu.shader_mmu.pagefaultLatency::31            0                       # Latency to complete the pagefault
system.gpu.shader_mmu.pagefaultLatency::total            0                       # Latency to complete the pagefault
system.gpu.shader_mmu.concurrentWalks::samples         2886                       # Number of outstanding walks
system.gpu.shader_mmu.concurrentWalks::mean            0                       # Number of outstanding walks
system.gpu.shader_mmu.concurrentWalks::gmean            0                       # Number of outstanding walks
system.gpu.shader_mmu.concurrentWalks::stdev            0                       # Number of outstanding walks
system.gpu.shader_mmu.concurrentWalks::0         2886    100.00%    100.00% # Number of outstanding walks
system.gpu.shader_mmu.concurrentWalks::1            0      0.00%    100.00% # Number of outstanding walks
system.gpu.shader_mmu.concurrentWalks::2            0      0.00%    100.00% # Number of outstanding walks
system.gpu.shader_mmu.concurrentWalks::3            0      0.00%    100.00% # Number of outstanding walks
system.gpu.shader_mmu.concurrentWalks::4            0      0.00%    100.00% # Number of outstanding walks
system.gpu.shader_mmu.concurrentWalks::5            0      0.00%    100.00% # Number of outstanding walks
system.gpu.shader_mmu.concurrentWalks::6            0      0.00%    100.00% # Number of outstanding walks
system.gpu.shader_mmu.concurrentWalks::7            0      0.00%    100.00% # Number of outstanding walks
system.gpu.shader_mmu.concurrentWalks::8            0      0.00%    100.00% # Number of outstanding walks
system.gpu.shader_mmu.concurrentWalks::9            0      0.00%    100.00% # Number of outstanding walks
system.gpu.shader_mmu.concurrentWalks::10            0      0.00%    100.00% # Number of outstanding walks
system.gpu.shader_mmu.concurrentWalks::11            0      0.00%    100.00% # Number of outstanding walks
system.gpu.shader_mmu.concurrentWalks::12            0      0.00%    100.00% # Number of outstanding walks
system.gpu.shader_mmu.concurrentWalks::13            0      0.00%    100.00% # Number of outstanding walks
system.gpu.shader_mmu.concurrentWalks::14            0      0.00%    100.00% # Number of outstanding walks
system.gpu.shader_mmu.concurrentWalks::15            0      0.00%    100.00% # Number of outstanding walks
system.gpu.shader_mmu.concurrentWalks::total         2886                       # Number of outstanding walks
system.gpu.shader_mmu.pagewalkLatency::samples         2886                       # Latency to complete the pagewalk
system.gpu.shader_mmu.pagewalkLatency::mean            0                       # Latency to complete the pagewalk
system.gpu.shader_mmu.pagewalkLatency::gmean            0                       # Latency to complete the pagewalk
system.gpu.shader_mmu.pagewalkLatency::stdev            0                       # Latency to complete the pagewalk
system.gpu.shader_mmu.pagewalkLatency::0         2886    100.00%    100.00% # Latency to complete the pagewalk
system.gpu.shader_mmu.pagewalkLatency::1            0      0.00%    100.00% # Latency to complete the pagewalk
system.gpu.shader_mmu.pagewalkLatency::2            0      0.00%    100.00% # Latency to complete the pagewalk
system.gpu.shader_mmu.pagewalkLatency::3            0      0.00%    100.00% # Latency to complete the pagewalk
system.gpu.shader_mmu.pagewalkLatency::4            0      0.00%    100.00% # Latency to complete the pagewalk
system.gpu.shader_mmu.pagewalkLatency::5            0      0.00%    100.00% # Latency to complete the pagewalk
system.gpu.shader_mmu.pagewalkLatency::6            0      0.00%    100.00% # Latency to complete the pagewalk
system.gpu.shader_mmu.pagewalkLatency::7            0      0.00%    100.00% # Latency to complete the pagewalk
system.gpu.shader_mmu.pagewalkLatency::8            0      0.00%    100.00% # Latency to complete the pagewalk
system.gpu.shader_mmu.pagewalkLatency::9            0      0.00%    100.00% # Latency to complete the pagewalk
system.gpu.shader_mmu.pagewalkLatency::10            0      0.00%    100.00% # Latency to complete the pagewalk
system.gpu.shader_mmu.pagewalkLatency::11            0      0.00%    100.00% # Latency to complete the pagewalk
system.gpu.shader_mmu.pagewalkLatency::12            0      0.00%    100.00% # Latency to complete the pagewalk
system.gpu.shader_mmu.pagewalkLatency::13            0      0.00%    100.00% # Latency to complete the pagewalk
system.gpu.shader_mmu.pagewalkLatency::14            0      0.00%    100.00% # Latency to complete the pagewalk
system.gpu.shader_mmu.pagewalkLatency::15            0      0.00%    100.00% # Latency to complete the pagewalk
system.gpu.shader_mmu.pagewalkLatency::16            0      0.00%    100.00% # Latency to complete the pagewalk
system.gpu.shader_mmu.pagewalkLatency::17            0      0.00%    100.00% # Latency to complete the pagewalk
system.gpu.shader_mmu.pagewalkLatency::18            0      0.00%    100.00% # Latency to complete the pagewalk
system.gpu.shader_mmu.pagewalkLatency::19            0      0.00%    100.00% # Latency to complete the pagewalk
system.gpu.shader_mmu.pagewalkLatency::20            0      0.00%    100.00% # Latency to complete the pagewalk
system.gpu.shader_mmu.pagewalkLatency::21            0      0.00%    100.00% # Latency to complete the pagewalk
system.gpu.shader_mmu.pagewalkLatency::22            0      0.00%    100.00% # Latency to complete the pagewalk
system.gpu.shader_mmu.pagewalkLatency::23            0      0.00%    100.00% # Latency to complete the pagewalk
system.gpu.shader_mmu.pagewalkLatency::24            0      0.00%    100.00% # Latency to complete the pagewalk
system.gpu.shader_mmu.pagewalkLatency::25            0      0.00%    100.00% # Latency to complete the pagewalk
system.gpu.shader_mmu.pagewalkLatency::26            0      0.00%    100.00% # Latency to complete the pagewalk
system.gpu.shader_mmu.pagewalkLatency::27            0      0.00%    100.00% # Latency to complete the pagewalk
system.gpu.shader_mmu.pagewalkLatency::28            0      0.00%    100.00% # Latency to complete the pagewalk
system.gpu.shader_mmu.pagewalkLatency::29            0      0.00%    100.00% # Latency to complete the pagewalk
system.gpu.shader_mmu.pagewalkLatency::30            0      0.00%    100.00% # Latency to complete the pagewalk
system.gpu.shader_mmu.pagewalkLatency::31            0      0.00%    100.00% # Latency to complete the pagewalk
system.gpu.shader_mmu.pagewalkLatency::total         2886                       # Latency to complete the pagewalk
system.gpu.kernels_started                          2                       # Number of kernels started
system.gpu.kernels_completed                        2                       # Number of kernels completed
system.gpu.ce.device_dtb.hits                       0                       # Number of hits in this TLB
system.gpu.ce.device_dtb.misses                     0                       # Number of misses in this TLB
system.gpu.ce.device_dtb.hitRate                  nan                       # Hit rate for this TLB
system.gpu.ce.host_dtb.hits                      6210                       # Number of hits in this TLB
system.gpu.ce.host_dtb.misses                    2886                       # Number of misses in this TLB
system.gpu.ce.host_dtb.hitRate               0.682718                       # Hit rate for this TLB
system.gpu.ce.numOperations                         8                       # Number of copy/memset operations
system.gpu.ce.opBytesRead                     1163612                       # Number of copy bytes read
system.gpu.ce.opBytesWritten                  1163612                       # Number of copy/memset bytes written
system.gpu.ce.opTimeTicks                   396828737                       # Total time spent in copy/memset operations
system.gpu.shader_cores0.itb.hits                   0                       # Number of hits in this TLB
system.gpu.shader_cores0.itb.misses                 0                       # Number of misses in this TLB
system.gpu.shader_cores0.itb.hitRate              nan                       # Hit rate for this TLB
system.gpu.shader_cores0.local_loads                0                       # Number of loads from local space
system.gpu.shader_cores0.local_stores               0                       # Number of stores to local space
system.gpu.shader_cores0.shared_loads           64512                       # Number of loads from shared space
system.gpu.shader_cores0.shared_stores          49152                       # Number of stores to shared space
system.gpu.shader_cores0.param_kernel_loads       116736                       # Number of loads from kernel parameter space
system.gpu.shader_cores0.param_local_loads            0                       # Number of loads from local parameter space
system.gpu.shader_cores0.param_local_stores            0                       # Number of stores to local parameter space
system.gpu.shader_cores0.const_loads                0                       # Number of loads from constant space
system.gpu.shader_cores0.tex_loads                  0                       # Number of loads from texture space
system.gpu.shader_cores0.global_loads          132176                       # Number of loads from global space
system.gpu.shader_cores0.global_stores          33824                       # Number of stores to global space
system.gpu.shader_cores0.surf_loads                 0                       # Number of loads from surface space
system.gpu.shader_cores0.generic_loads              0                       # Number of loads from generic spaces (global, shared, local)
system.gpu.shader_cores0.generic_stores             0                       # Number of stores to generic spaces (global, shared, local)
system.gpu.shader_cores0.inst_cache_requests           13                       # Number of instruction cache requests sent
system.gpu.shader_cores0.inst_cache_retries            0                       # Number of instruction cache retries
system.gpu.shader_cores0.inst_counts::0             0                       # Inst counts: 1: ALU, 2: MAD, 3: CTRL, 4: SFU, 5: MEM, 6: TEX, 7: NOP
system.gpu.shader_cores0.inst_counts::1       2083072                       # Inst counts: 1: ALU, 2: MAD, 3: CTRL, 4: SFU, 5: MEM, 6: TEX, 7: NOP
system.gpu.shader_cores0.inst_counts::2         32800                       # Inst counts: 1: ALU, 2: MAD, 3: CTRL, 4: SFU, 5: MEM, 6: TEX, 7: NOP
system.gpu.shader_cores0.inst_counts::3        310256                       # Inst counts: 1: ALU, 2: MAD, 3: CTRL, 4: SFU, 5: MEM, 6: TEX, 7: NOP
system.gpu.shader_cores0.inst_counts::4         98304                       # Inst counts: 1: ALU, 2: MAD, 3: CTRL, 4: SFU, 5: MEM, 6: TEX, 7: NOP
system.gpu.shader_cores0.inst_counts::5        396400                       # Inst counts: 1: ALU, 2: MAD, 3: CTRL, 4: SFU, 5: MEM, 6: TEX, 7: NOP
system.gpu.shader_cores0.inst_counts::6             0                       # Inst counts: 1: ALU, 2: MAD, 3: CTRL, 4: SFU, 5: MEM, 6: TEX, 7: NOP
system.gpu.shader_cores0.inst_counts::7             0                       # Inst counts: 1: ALU, 2: MAD, 3: CTRL, 4: SFU, 5: MEM, 6: TEX, 7: NOP
system.gpu.shader_cores0.activeCycles          136093                       # Number of cycles this shader was executing a CTA
system.gpu.shader_cores0.notStalledCycles        73644                       # Number of cycles this shader was actually executing at least one instance
system.gpu.shader_cores0.instInstances        2920832                       # Total instructions executed by all PEs in the core
system.gpu.shader_cores0.instPerCycle       21.462030                       # Instruction instances per cycle
system.gpu.shader_cores0.kernels_completed            2                       # Number of kernels completed
system.gpu.shader_cores0.lsq.data_tlb.hits            0                       # Number of hits in this TLB
system.gpu.shader_cores0.lsq.data_tlb.misses            0                       # Number of misses in this TLB
system.gpu.shader_cores0.lsq.data_tlb.hitRate          nan                       # Hit rate for this TLB
system.gpu.shader_cores0.lsq.warpInstBufActive::samples    192886420                       # Histogram of number of active warp inst buffers at a given time
system.gpu.shader_cores0.lsq.warpInstBufActive::mean    18.082686                       # Histogram of number of active warp inst buffers at a given time
system.gpu.shader_cores0.lsq.warpInstBufActive::gmean          nan                       # Histogram of number of active warp inst buffers at a given time
system.gpu.shader_cores0.lsq.warpInstBufActive::stdev    16.650778                       # Histogram of number of active warp inst buffers at a given time
system.gpu.shader_cores0.lsq.warpInstBufActive::0     39503276     20.48%     20.48% # Histogram of number of active warp inst buffers at a given time
system.gpu.shader_cores0.lsq.warpInstBufActive::1     21006300     10.89%     31.37% # Histogram of number of active warp inst buffers at a given time
[...]
system.ruby.L1Cache_Controller.I.Ifetch::total          644                      
system.ruby.L1Cache_Controller.I.Store   |          51      9.85%      9.85% |           0      0.00%      9.85% |          89     17.18%     27.03% |         116     22.39%     49.42% |         130     25.10%     74.52% |         132     25.48%    100.00% |           0      0.00%    100.00% |           0      0.00%    100.00%
system.ruby.L1Cache_Controller.I.Store::total          518                      
system.ruby.L1Cache_Controller.I.L1_Replacement |         512     15.13%     15.13% |           0      0.00%     15.13% |         734     21.69%     36.82% |         700     20.69%     57.51% |         720     21.28%     78.78% |         700     20.69%     99.47% |           0      0.00%     99.47% |          18      0.53%    100.00%
system.ruby.L1Cache_Controller.I.L1_Replacement::total         3384                      
system.ruby.L1Cache_Controller.S.Load    |         257      2.50%      2.50% |           0      0.00%      2.50% |        2500     24.35%     26.85% |        2491     24.26%     51.11% |        2483     24.18%     75.29% |        2537     24.71%    100.00% |           0      0.00%    100.00% |           0      0.00%    100.00%
system.ruby.L1Cache_Controller.S.Load::total        10268                      
system.ruby.L1Cache_Controller.S.Ifetch  |    24685164    100.00%    100.00% |           0      0.00%    100.00% |           0      0.00%    100.00% |           0      0.00%    100.00% |           0      0.00%    100.00% |           0      0.00%    100.00% |           0      0.00%    100.00% |           0      0.00%    100.00%
system.ruby.L1Cache_Controller.S.Ifetch::total     24685164                      
system.ruby.L1Cache_Controller.S.Store   |           1      0.19%      0.19% |           0      0.00%      0.19% |         133     25.00%     25.19% |         139     26.13%     51.32% |         129     24.25%     75.56% |         130     24.44%    100.00% |           0      0.00%    100.00% |           0      0.00%    100.00%
system.ruby.L1Cache_Controller.S.Store::total          532                      
system.ruby.L1Cache_Controller.S.Inv     |        1031     42.31%     42.31% |           0      0.00%     42.31% |         318     13.05%     55.35% |         339     13.91%     69.27% |         375     15.39%     84.65% |         373     15.31%     99.96% |           0      0.00%     99.96% |           1      0.04%    100.00%
system.ruby.L1Cache_Controller.S.Inv::total         2437                      
system.ruby.L1Cache_Controller.S.L1_Replacement |       59975     98.99%     98.99% |           0      0.00%     98.99% |         108      0.18%     99.17% |         124      0.20%     99.37% |         103      0.17%     99.54% |         101      0.17%     99.71% |           0      0.00%     99.71% |         176      0.29%    100.00%
system.ruby.L1Cache_Controller.S.L1_Replacement::total        60587                      
system.ruby.L1Cache_Controller.E.Load    |      850609     98.98%     98.98% |           0      0.00%     98.98% |        2223      0.26%     99.24% |        2118      0.25%     99.49% |        2206      0.26%     99.75% |        2184      0.25%    100.00% |           0      0.00%    100.00% |           0      0.00%    100.00%
system.ruby.L1Cache_Controller.E.Load::total       859340                      
system.ruby.L1Cache_Controller.E.Store   |        5455     58.39%     58.39% |           0      0.00%     58.39% |         972     10.40%     68.79% |         954     10.21%     79.00% |         962     10.30%     89.30% |        1000     10.70%    100.00% |           0      0.00%    100.00% |           0      0.00%    100.00%
system.ruby.L1Cache_Controller.E.Store::total         9343                      
system.ruby.L1Cache_Controller.E.Inv     |         353     22.09%     22.09% |           0      0.00%     22.09% |         312     19.52%     41.61% |         313     19.59%     61.20% |         302     18.90%     80.10% |         318     19.90%    100.00% |           0      0.00%    100.00% |           0      0.00%    100.00%
system.ruby.L1Cache_Controller.E.Inv::total         1598                      
system.ruby.L1Cache_Controller.E.L1_Replacement |       14379     59.92%     59.92% |           0      0.00%     59.92% |         170      0.71%     60.63% |         168      0.70%     61.33% |         183      0.76%     62.09% |         169      0.70%     62.80% |           0      0.00%     62.80% |        8928     37.20%    100.00%
system.ruby.L1Cache_Controller.E.L1_Replacement::total        23997                      
system.ruby.L1Cache_Controller.E.Fwd_GETX |           8    100.00%    100.00% |           0      0.00%    100.00% |           0      0.00%    100.00% |           0      0.00%    100.00% |           0      0.00%    100.00% |           0      0.00%    100.00% |           0      0.00%    100.00% |           0      0.00%    100.00%
system.ruby.L1Cache_Controller.E.Fwd_GETX::total            8                      
system.ruby.L1Cache_Controller.E.Fwd_GETS |           6      2.01%      2.01% |           0      0.00%      2.01% |          67     22.41%     24.41% |          70     23.41%     47.83% |          79     26.42%     74.25% |          77     25.75%    100.00% |           0      0.00%    100.00% |           0      0.00%    100.00%
system.ruby.L1Cache_Controller.E.Fwd_GETS::total          299                      
system.ruby.L1Cache_Controller.M.Load    |     3244707     99.99%     99.99% |           0      0.00%     99.99% |          83      0.00%     99.99% |          75      0.00%    100.00% |          58      0.00%    100.00% |          54      0.00%    100.00% |           0      0.00%    100.00% |           0      0.00%    100.00%
system.ruby.L1Cache_Controller.M.Load::total      3244977                      
system.ruby.L1Cache_Controller.M.Store   |     3195182     99.72%     99.72% |           0      0.00%     99.72% |        2250      0.07%     99.79% |        2203      0.07%     99.86% |        2232      0.07%     99.93% |        2260      0.07%    100.00% |           0      0.00%    100.00% |           0      0.00%    100.00%
system.ruby.L1Cache_Controller.M.Store::total      3204127                      
system.ruby.L1Cache_Controller.M.Inv     |         287     11.19%     11.19% |           0      0.00%     11.19% |         579     22.58%     33.78% |         556     21.68%     55.46% |         572     22.31%     77.77% |         545     21.26%     99.02% |           0      0.00%     99.02% |          25      0.98%    100.00%
system.ruby.L1Cache_Controller.M.Inv::total         2564                      
system.ruby.L1Cache_Controller.M.L1_Replacement |       26940     70.65%     70.65% |           0      0.00%     70.65% |         484      1.27%     71.91% |         522      1.37%     73.28% |         528      1.38%     74.67% |         599      1.57%     76.24% |           0      0.00%     76.24% |        9061     23.76%    100.00%
system.ruby.L1Cache_Controller.M.L1_Replacement::total        38134                      
system.ruby.L1Cache_Controller.M.Fwd_GETX |           2      0.33%      0.33% |           0      0.00%      0.33% |         161     26.44%     26.77% |         158     25.94%     52.71% |         149     24.47%     77.18% |         139     22.82%    100.00% |           0      0.00%    100.00% |           0      0.00%    100.00%
system.ruby.L1Cache_Controller.M.Fwd_GETX::total          609                      
system.ruby.L1Cache_Controller.M.Fwd_GETS |           2      1.28%      1.28% |           0      0.00%      1.28% |          32     20.51%     21.79% |          37     23.72%     45.51% |          35     22.44%     67.95% |          41     26.28%     94.23% |           0      0.00%     94.23% |           9      5.77%    100.00%
system.ruby.L1Cache_Controller.M.Fwd_GETS::total          156                      
system.ruby.L1Cache_Controller.IS.L1_Replacement |           0      0.00%      0.00% |           0      0.00%      0.00% |           0      0.00%      0.00% |           2      0.00%      0.00% |           2      0.00%      0.00% |           4      0.00%      0.01% |           0      0.00%      0.01% |      120080     99.99%    100.00%
system.ruby.L1Cache_Controller.IS.L1_Replacement::total       120088                      
system.ruby.L1Cache_Controller.IS.Data_Exclusive |       20218     57.34%     57.34% |           0      0.00%     57.34% |        1521      4.31%     61.65% |        1505      4.27%     65.92% |        1526      4.33%     70.25% |        1564      4.44%     74.68% |           0      0.00%     74.68% |        8928     25.32%    100.00%
system.ruby.L1Cache_Controller.IS.Data_Exclusive::total        35262                      
system.ruby.L1Cache_Controller.IS.DataS_fromL1 |          10      2.20%      2.20% |           0      0.00%      2.20% |          88     19.34%     21.54% |          84     18.46%     40.00% |          86     18.90%     58.90% |          82     18.02%     76.92% |           0      0.00%     76.92% |         105     23.08%    100.00%
system.ruby.L1Cache_Controller.IS.DataS_fromL1::total          455                      
system.ruby.L1Cache_Controller.IS.Data_all_Acks |       61069     97.36%     97.36% |           0      0.00%     97.36% |         372      0.59%     97.95% |         411      0.66%     98.61% |         407      0.65%     99.26% |         404      0.64%     99.90% |           0      0.00%     99.90% |          63      0.10%    100.00%
system.ruby.L1Cache_Controller.IS.Data_all_Acks::total        62726                      
system.ruby.L1Cache_Controller.IM.Inv    |           0      0.00%      0.00% |           0      0.00%      0.00% |           0      0.00%      0.00% |           0      0.00%      0.00% |           1    100.00%    100.00% |           0      0.00%    100.00% |           0      0.00%    100.00% |           0      0.00%    100.00%
system.ruby.L1Cache_Controller.IM.Inv::total            1                      
system.ruby.L1Cache_Controller.IM.L1_Replacement |           0      0.00%      0.00% |           0      0.00%      0.00% |           0      0.00%      0.00% |           0      0.00%      0.00% |           0      0.00%      0.00% |           0      0.00%      0.00% |           0      0.00%      0.00% |      125123    100.00%    100.00%
system.ruby.L1Cache_Controller.IM.L1_Replacement::total       125123                      
system.ruby.L1Cache_Controller.IM.Data   |           1    100.00%    100.00% |           0      0.00%    100.00% |           0      0.00%    100.00% |           0      0.00%    100.00% |           0      0.00%    100.00% |           0      0.00%    100.00% |           0      0.00%    100.00% |           0      0.00%    100.00%
system.ruby.L1Cache_Controller.IM.Data::total            1                      
system.ruby.L1Cache_Controller.IM.Data_all_Acks |       22013     69.13%     69.13% |           0      0.00%     69.13% |         154      0.48%     69.61% |         183      0.57%     70.19% |         195      0.61%     70.80% |         203      0.64%     71.44% |           0      0.00%     71.44% |        9095     28.56%    100.00%
system.ruby.L1Cache_Controller.IM.Data_all_Acks::total        31843                      
system.ruby.L1Cache_Controller.SM.Inv    |           0      0.00%      0.00% |           0      0.00%      0.00% |           3     17.65%     17.65% |           3     17.65%     35.29% |           2     11.76%     47.06% |           9     52.94%    100.00% |           0      0.00%    100.00% |           0      0.00%    100.00%
system.ruby.L1Cache_Controller.SM.Inv::total           17                      
system.ruby.L1Cache_Controller.SM.Ack    |           5      0.96%      0.96% |           0      0.00%      0.96% |         130     25.05%     26.01% |         136     26.20%     52.22% |         127     24.47%     76.69% |         121     23.31%    100.00% |           0      0.00%    100.00% |           0      0.00%    100.00%
system.ruby.L1Cache_Controller.SM.Ack::total          519                      
system.ruby.L1Cache_Controller.SM.Ack_all |           2      0.39%      0.39% |           0      0.00%      0.39% |         130     25.19%     25.58% |         136     26.36%     51.94% |         127     24.61%     76.55% |         121     23.45%    100.00% |           0      0.00%    100.00% |           0      0.00%    100.00%
system.ruby.L1Cache_Controller.SM.Ack_all::total          516                      
system.ruby.L1Cache_Controller.M_I.Ifetch |           1    100.00%    100.00% |           0      0.00%    100.00% |           0      0.00%    100.00% |           0      0.00%    100.00% |           0      0.00%    100.00% |           0      0.00%    100.00% |           0      0.00%    100.00% |           0      0.00%    100.00%
system.ruby.L1Cache_Controller.M_I.Ifetch::total            1                      
system.ruby.L1Cache_Controller.M_I.Inv   |           0      0.00%      0.00% |           0      0.00%      0.00% |           1     20.00%     20.00% |           3     60.00%     80.00% |           1     20.00%    100.00% |           0      0.00%    100.00% |           0      0.00%    100.00% |           0      0.00%    100.00%
system.ruby.L1Cache_Controller.M_I.Inv::total            5                      
system.ruby.L1Cache_Controller.M_I.WB_Ack |       41319     66.51%     66.51% |           0      0.00%     66.51% |         653      1.05%     67.56% |         687      1.11%     68.67% |         710      1.14%     69.81% |         768      1.24%     71.04% |           0      0.00%     71.04% |       17989     28.96%    100.00%
system.ruby.L1Cache_Controller.M_I.WB_Ack::total        62126                      
system.ruby.L1Cache_Controller.SINK_WB_ACK.WB_Ack |           0      0.00%      0.00% |           0      0.00%      0.00% |           1     20.00%     20.00% |           3     60.00%     80.00% |           1     20.00%    100.00% |           0      0.00%    100.00% |           0      0.00%    100.00% |           0      0.00%    100.00%
system.ruby.L1Cache_Controller.SINK_WB_ACK.WB_Ack::total            5                      
system.ruby.L2Cache_Controller.L1_GET_INSTR        61117      0.00%      0.00%
system.ruby.L2Cache_Controller.L1_GETS          37335      0.00%      0.00%
system.ruby.L2Cache_Controller.L1_GETX          31874      0.00%      0.00%
system.ruby.L2Cache_Controller.L1_UPGRADE          529      0.00%      0.00%
system.ruby.L2Cache_Controller.L1_PUTX          62126      0.00%      0.00%
system.ruby.L2Cache_Controller.L1_PUTX_old            7      0.00%      0.00%
system.ruby.L2Cache_Controller.L2_Replacement        30097      0.00%      0.00%
system.ruby.L2Cache_Controller.L2_Replacement_clean        22343      0.00%      0.00%
system.ruby.L2Cache_Controller.Mem_Data         54488      0.00%      0.00%
system.ruby.L2Cache_Controller.Mem_Ack          52440      0.00%      0.00%
system.ruby.L2Cache_Controller.WB_Data           2725      0.00%      0.00%
system.ruby.L2Cache_Controller.WB_Data_clean          299      0.00%      0.00%
system.ruby.L2Cache_Controller.Ack                906      0.00%      0.00%
system.ruby.L2Cache_Controller.Ack_all           3363      0.00%      0.00%
system.ruby.L2Cache_Controller.Unblock            455      0.00%      0.00%
system.ruby.L2Cache_Controller.Exclusive_Unblock        67621      0.00%      0.00%
system.ruby.L2Cache_Controller.NP.L1_GET_INSTR         1232      0.00%      0.00%
system.ruby.L2Cache_Controller.NP.L1_GETS        28521      0.00%      0.00%
system.ruby.L2Cache_Controller.NP.L1_GETX        24735      0.00%      0.00%
system.ruby.L2Cache_Controller.NP.L1_PUTX_old            2      0.00%      0.00%
system.ruby.L2Cache_Controller.SS.L1_GET_INSTR        59851      0.00%      0.00%
system.ruby.L2Cache_Controller.SS.L1_GETS          151      0.00%      0.00%
system.ruby.L2Cache_Controller.SS.L1_GETX            1      0.00%      0.00%
system.ruby.L2Cache_Controller.SS.L1_UPGRADE          515      0.00%      0.00%
system.ruby.L2Cache_Controller.SS.L2_Replacement          109      0.00%      0.00%
system.ruby.L2Cache_Controller.SS.L2_Replacement_clean         1656      0.00%      0.00%
system.ruby.L2Cache_Controller.M.L1_GET_INSTR            2      0.00%      0.00%
system.ruby.L2Cache_Controller.M.L1_GETS         7416      0.00%      0.00%
system.ruby.L2Cache_Controller.M.L1_GETX         6491      0.00%      0.00%
system.ruby.L2Cache_Controller.M.L2_Replacement        29840      0.00%      0.00%
system.ruby.L2Cache_Controller.M.L2_Replacement_clean        16668      0.00%      0.00%
system.ruby.L2Cache_Controller.MT.L1_GETS          455      0.00%      0.00%
system.ruby.L2Cache_Controller.MT.L1_GETX          617      0.00%      0.00%
system.ruby.L2Cache_Controller.MT.L1_PUTX        62126      0.00%      0.00%
system.ruby.L2Cache_Controller.MT.L2_Replacement          148      0.00%      0.00%
system.ruby.L2Cache_Controller.MT.L2_Replacement_clean         4019      0.00%      0.00%
system.ruby.L2Cache_Controller.M_I.L1_GETS            1      0.00%      0.00%
system.ruby.L2Cache_Controller.M_I.L1_PUTX_old            3      0.00%      0.00%
system.ruby.L2Cache_Controller.M_I.Mem_Ack        52440      0.00%      0.00%
system.ruby.L2Cache_Controller.MT_I.WB_Data           30      0.00%      0.00%
system.ruby.L2Cache_Controller.MT_I.Ack_all          118      0.00%      0.00%
system.ruby.L2Cache_Controller.MCT_I.L1_PUTX_old            2      0.00%      0.00%
system.ruby.L2Cache_Controller.MCT_I.WB_Data         2539      0.00%      0.00%
system.ruby.L2Cache_Controller.MCT_I.Ack_all         1480      0.00%      0.00%
system.ruby.L2Cache_Controller.I_I.Ack            797      0.00%      0.00%
system.ruby.L2Cache_Controller.I_I.Ack_all         1656      0.00%      0.00%
system.ruby.L2Cache_Controller.S_I.Ack            109      0.00%      0.00%
system.ruby.L2Cache_Controller.S_I.Ack_all          109      0.00%      0.00%
system.ruby.L2Cache_Controller.ISS.L1_GETS          675      0.00%      0.00%
system.ruby.L2Cache_Controller.ISS.Mem_Data        27846      0.00%      0.00%
system.ruby.L2Cache_Controller.IS.L1_GET_INSTR           32      0.00%      0.00%
system.ruby.L2Cache_Controller.IS.L1_GETS          108      0.00%      0.00%
system.ruby.L2Cache_Controller.IS.Mem_Data         1907      0.00%      0.00%
system.ruby.L2Cache_Controller.IM.L1_GETX           23      0.00%      0.00%
system.ruby.L2Cache_Controller.IM.Mem_Data        24735      0.00%      0.00%
system.ruby.L2Cache_Controller.SS_MB.L1_GETS            1      0.00%      0.00%
system.ruby.L2Cache_Controller.SS_MB.L1_GETX            2      0.00%      0.00%
system.ruby.L2Cache_Controller.SS_MB.L1_UPGRADE           14      0.00%      0.00%
system.ruby.L2Cache_Controller.SS_MB.Exclusive_Unblock          516      0.00%      0.00%
system.ruby.L2Cache_Controller.MT_MB.L1_GETS            4      0.00%      0.00%
system.ruby.L2Cache_Controller.MT_MB.L1_GETX            5      0.00%      0.00%
system.ruby.L2Cache_Controller.MT_MB.Exclusive_Unblock        67105      0.00%      0.00%
system.ruby.L2Cache_Controller.MT_IIB.L1_GETS            3      0.00%      0.00%
system.ruby.L2Cache_Controller.MT_IIB.WB_Data           47      0.00%      0.00%
system.ruby.L2Cache_Controller.MT_IIB.WB_Data_clean            8      0.00%      0.00%
system.ruby.L2Cache_Controller.MT_IIB.Unblock          400      0.00%      0.00%
system.ruby.L2Cache_Controller.MT_IB.WB_Data          109      0.00%      0.00%
system.ruby.L2Cache_Controller.MT_IB.WB_Data_clean          291      0.00%      0.00%
system.ruby.L2Cache_Controller.MT_SB.Unblock           55      0.00%      0.00%

---------- End Simulation Statistics   ----------
