
---------- Begin Simulation Statistics ----------
sim_seconds                                  0.393035                       # Number of seconds simulated
sim_ticks                                393034887500                       # Number of ticks simulated
final_tick                               393249472000                       # Number of ticks from beginning of simulation (restored from checkpoints and never reset)
sim_freq                                 1000000000000                       # Frequency of simulated ticks
host_inst_rate                                 103088                       # Simulator instruction rate (inst/s)
host_op_rate                                   200487                       # Simulator op (including micro ops) rate (op/s)
host_tick_rate                              202484805                       # Simulator tick rate (ticks/s)
host_mem_usage                                1569540                       # Number of bytes of host memory used
host_seconds                                  1941.06                       # Real time elapsed on the host
sim_insts                                   200100001                       # Number of instructions simulated
sim_ops                                     389157160                       # Number of ops (including micro ops) simulated
system.voltage_domain.voltage                       1                       # Voltage in Volts
system.clk_domain.clock                          1000                       # Clock period in ticks
system.mem_ctrls.bytes_read::ruby.dir_cntrl0    108813952                       # Number of bytes read from this memory
system.mem_ctrls.bytes_read::total          108813952                       # Number of bytes read from this memory
system.mem_ctrls.bytes_written::ruby.dir_cntrl0     59920896                       # Number of bytes written to this memory
system.mem_ctrls.bytes_written::total        59920896                       # Number of bytes written to this memory
system.mem_ctrls.num_reads::ruby.dir_cntrl0       850109                       # Number of read requests responded to by this memory
system.mem_ctrls.num_reads::total              850109                       # Number of read requests responded to by this memory
system.mem_ctrls.num_writes::ruby.dir_cntrl0       468132                       # Number of write requests responded to by this memory
system.mem_ctrls.num_writes::total             468132                       # Number of write requests responded to by this memory
system.mem_ctrls.bw_read::ruby.dir_cntrl0    276855708                       # Total read bandwidth from this memory (bytes/s)
system.mem_ctrls.bw_read::total             276855708                       # Total read bandwidth from this memory (bytes/s)
system.mem_ctrls.bw_write::ruby.dir_cntrl0    152456939                       # Write bandwidth from this memory (bytes/s)
system.mem_ctrls.bw_write::total            152456939                       # Write bandwidth from this memory (bytes/s)
system.mem_ctrls.bw_total::ruby.dir_cntrl0    429312647                       # Total bandwidth to/from this memory (bytes/s)
system.mem_ctrls.bw_total::total            429312647                       # Total bandwidth to/from this memory (bytes/s)
system.mem_ctrls.readReqs                      850109                       # Number of read requests accepted
system.mem_ctrls.writeReqs                     468132                       # Number of write requests accepted
system.mem_ctrls.readBursts                   1700218                       # Number of DRAM read bursts, including those serviced by the write queue
system.mem_ctrls.writeBursts                   936264                       # Number of DRAM write bursts, including those merged in the write queue
system.mem_ctrls.bytesReadDRAM              108608640                       # Total number of bytes read from DRAM
system.mem_ctrls.bytesReadWrQ                  205312                       # Total number of bytes read from write queue
system.mem_ctrls.bytesWritten                59876160                       # Total number of bytes written to DRAM
system.mem_ctrls.bytesReadSys               108813952                       # Total read bytes from the system interface side
system.mem_ctrls.bytesWrittenSys             59920896                       # Total written bytes from the system interface side
system.mem_ctrls.servicedByWrQ                   3208                       # Number of DRAM read bursts serviced by the write queue
system.mem_ctrls.mergedWrBursts                   668                       # Number of DRAM write bursts merged with an existing one
system.mem_ctrls.neitherReadNorWriteReqs            0                       # Number of requests that are neither read nor write
system.mem_ctrls.perBankRdBursts::0            106484                       # Per bank write bursts
system.mem_ctrls.perBankRdBursts::1            105172                       # Per bank write bursts
system.mem_ctrls.perBankRdBursts::2            106503                       # Per bank write bursts
system.mem_ctrls.perBankRdBursts::3            105898                       # Per bank write bursts
system.mem_ctrls.perBankRdBursts::4            104927                       # Per bank write bursts
system.mem_ctrls.perBankRdBursts::5            106007                       # Per bank write bursts
system.mem_ctrls.perBankRdBursts::6            107432                       # Per bank write bursts
system.mem_ctrls.perBankRdBursts::7            106087                       # Per bank write bursts
system.mem_ctrls.perBankRdBursts::8            107156                       # Per bank write bursts
system.mem_ctrls.perBankRdBursts::9            106479                       # Per bank write bursts
system.mem_ctrls.perBankRdBursts::10           106336                       # Per bank write bursts
system.mem_ctrls.perBankRdBursts::11           105995                       # Per bank write bursts
system.mem_ctrls.perBankRdBursts::12           106550                       # Per bank write bursts
system.mem_ctrls.perBankRdBursts::13           104894                       # Per bank write bursts
system.mem_ctrls.perBankRdBursts::14           106093                       # Per bank write bursts
system.mem_ctrls.perBankRdBursts::15           104997                       # Per bank write bursts
system.mem_ctrls.perBankWrBursts::0             58578                       # Per bank write bursts
system.mem_ctrls.perBankWrBursts::1             58395                       # Per bank write bursts
system.mem_ctrls.perBankWrBursts::2             58426                       # Per bank write bursts
system.mem_ctrls.perBankWrBursts::3             58491                       # Per bank write bursts
system.mem_ctrls.perBankWrBursts::4             58512                       # Per bank write bursts
system.mem_ctrls.perBankWrBursts::5             58512                       # Per bank write bursts
system.mem_ctrls.perBankWrBursts::6             58332                       # Per bank write bursts
system.mem_ctrls.perBankWrBursts::7             59120                       # Per bank write bursts
system.mem_ctrls.perBankWrBursts::8             58421                       # Per bank write bursts
system.mem_ctrls.perBankWrBursts::9             58232                       # Per bank write bursts
system.mem_ctrls.perBankWrBursts::10            58039                       # Per bank write bursts
system.mem_ctrls.perBankWrBursts::11            58678                       # Per bank write bursts
system.mem_ctrls.perBankWrBursts::12            59180                       # Per bank write bursts
system.mem_ctrls.perBankWrBursts::13            58272                       # Per bank write bursts
system.mem_ctrls.perBankWrBursts::14            58161                       # Per bank write bursts
system.mem_ctrls.perBankWrBursts::15            58216                       # Per bank write bursts
system.mem_ctrls.numRdRetry                    282125                       # Number of times read queue was full causing retry
system.mem_ctrls.numWrRetry                      7027                       # Number of times write queue was full causing retry
system.mem_ctrls.totGap                  393030273500                       # Total gap between requests
system.mem_ctrls.readPktSize::0                     0                       # Read request sizes (log2)
system.mem_ctrls.readPktSize::1                     0                       # Read request sizes (log2)
system.mem_ctrls.readPktSize::2                     0                       # Read request sizes (log2)
system.mem_ctrls.readPktSize::3                     0                       # Read request sizes (log2)
system.mem_ctrls.readPktSize::4                     0                       # Read request sizes (log2)
system.mem_ctrls.readPktSize::5                     0                       # Read request sizes (log2)
system.mem_ctrls.readPktSize::6               1700218                       # Read request sizes (log2)
system.mem_ctrls.writePktSize::0                    0                       # Write request sizes (log2)
system.mem_ctrls.writePktSize::1                    0                       # Write request sizes (log2)
system.mem_ctrls.writePktSize::2                    0                       # Write request sizes (log2)
system.mem_ctrls.writePktSize::3                    0                       # Write request sizes (log2)
system.mem_ctrls.writePktSize::4                    0                       # Write request sizes (log2)
system.mem_ctrls.writePktSize::5                    0                       # Write request sizes (log2)
system.mem_ctrls.writePktSize::6               936264                       # Write request sizes (log2)
system.mem_ctrls.rdQLenPdf::0                  391990                       # What read queue length does an incoming req see
system.mem_ctrls.rdQLenPdf::1                  396278                       # What read queue length does an incoming req see
system.mem_ctrls.rdQLenPdf::2                   32031                       # What read queue length does an incoming req see
system.mem_ctrls.rdQLenPdf::3                   39331                       # What read queue length does an incoming req see
system.mem_ctrls.rdQLenPdf::4                   54013                       # What read queue length does an incoming req see
system.mem_ctrls.rdQLenPdf::5                   62551                       # What read queue length does an incoming req see
system.mem_ctrls.rdQLenPdf::6                   68982                       # What read queue length does an incoming req see
system.mem_ctrls.rdQLenPdf::7                   66907                       # What read queue length does an incoming req see
system.mem_ctrls.rdQLenPdf::8                   60699                       # What read queue length does an incoming req see
system.mem_ctrls.rdQLenPdf::9                   53649                       # What read queue length does an incoming req see
system.mem_ctrls.rdQLenPdf::10                  47846                       # What read queue length does an incoming req see
system.mem_ctrls.rdQLenPdf::11                  44638                       # What read queue length does an incoming req see
system.mem_ctrls.rdQLenPdf::12                  31850                       # What read queue length does an incoming req see
system.mem_ctrls.rdQLenPdf::13                  26053                       # What read queue length does an incoming req see
system.mem_ctrls.rdQLenPdf::14                  14835                       # What read queue length does an incoming req see
system.mem_ctrls.rdQLenPdf::15                  13046                       # What read queue length does an incoming req see
system.mem_ctrls.rdQLenPdf::16                    739                       # What read queue length does an incoming req see
system.mem_ctrls.rdQLenPdf::17                    707                       # What read queue length does an incoming req see
system.mem_ctrls.rdQLenPdf::18                    598                       # What read queue length does an incoming req see
system.mem_ctrls.rdQLenPdf::19                    572                       # What read queue length does an incoming req see
system.mem_ctrls.rdQLenPdf::20                    487                       # What read queue length does an incoming req see
system.mem_ctrls.rdQLenPdf::21                    479                       # What read queue length does an incoming req see
system.mem_ctrls.rdQLenPdf::22                    443                       # What read queue length does an incoming req see
system.mem_ctrls.rdQLenPdf::23                    444                       # What read queue length does an incoming req see
system.mem_ctrls.rdQLenPdf::24                    466                       # What read queue length does an incoming req see
system.mem_ctrls.rdQLenPdf::25                    487                       # What read queue length does an incoming req see
system.mem_ctrls.rdQLenPdf::26                    545                       # What read queue length does an incoming req see
system.mem_ctrls.rdQLenPdf::27                    614                       # What read queue length does an incoming req see
system.mem_ctrls.rdQLenPdf::28                    725                       # What read queue length does an incoming req see
system.mem_ctrls.rdQLenPdf::29                    835                       # What read queue length does an incoming req see
system.mem_ctrls.rdQLenPdf::30                 142276                       # What read queue length does an incoming req see
system.mem_ctrls.rdQLenPdf::31                 141894                       # What read queue length does an incoming req see
system.mem_ctrls.wrQLenPdf::0                       1                       # What write queue length does an incoming req see
system.mem_ctrls.wrQLenPdf::1                       1                       # What write queue length does an incoming req see
system.mem_ctrls.wrQLenPdf::2                       1                       # What write queue length does an incoming req see
system.mem_ctrls.wrQLenPdf::3                       1                       # What write queue length does an incoming req see
system.mem_ctrls.wrQLenPdf::4                       1                       # What write queue length does an incoming req see
system.mem_ctrls.wrQLenPdf::5                       1                       # What write queue length does an incoming req see
system.mem_ctrls.wrQLenPdf::6                       1                       # What write queue length does an incoming req see
system.mem_ctrls.wrQLenPdf::7                       1                       # What write queue length does an incoming req see
system.mem_ctrls.wrQLenPdf::8                       1                       # What write queue length does an incoming req see
system.mem_ctrls.wrQLenPdf::9                       1                       # What write queue length does an incoming req see
system.mem_ctrls.wrQLenPdf::10                      1                       # What write queue length does an incoming req see
system.mem_ctrls.wrQLenPdf::11                      1                       # What write queue length does an incoming req see
system.mem_ctrls.wrQLenPdf::12                      1                       # What write queue length does an incoming req see
system.mem_ctrls.wrQLenPdf::13                      1                       # What write queue length does an incoming req see
system.mem_ctrls.wrQLenPdf::14                      1                       # What write queue length does an incoming req see
system.mem_ctrls.wrQLenPdf::15                   1304                       # What write queue length does an incoming req see
system.mem_ctrls.wrQLenPdf::16                   1398                       # What write queue length does an incoming req see
system.mem_ctrls.wrQLenPdf::17                  28426                       # What write queue length does an incoming req see
system.mem_ctrls.wrQLenPdf::18                  30876                       # What write queue length does an incoming req see
system.mem_ctrls.wrQLenPdf::19                  31288                       # What write queue length does an incoming req see
system.mem_ctrls.wrQLenPdf::20                  31786                       # What write queue length does an incoming req see
system.mem_ctrls.wrQLenPdf::21                  33393                       # What write queue length does an incoming req see
system.mem_ctrls.wrQLenPdf::22                  35100                       # What write queue length does an incoming req see
system.mem_ctrls.wrQLenPdf::23                  40691                       # What write queue length does an incoming req see
system.mem_ctrls.wrQLenPdf::24                  45627                       # What write queue length does an incoming req see
system.mem_ctrls.wrQLenPdf::25                  48668                       # What write queue length does an incoming req see
system.mem_ctrls.wrQLenPdf::26                  52712                       # What write queue length does an incoming req see
system.mem_ctrls.wrQLenPdf::27                  53463                       # What write queue length does an incoming req see
system.mem_ctrls.wrQLenPdf::28                  55834                       # What write queue length does an incoming req see
system.mem_ctrls.wrQLenPdf::29                  56432                       # What write queue length does an incoming req see
system.mem_ctrls.wrQLenPdf::30                  54981                       # What write queue length does an incoming req see
system.mem_ctrls.wrQLenPdf::31                  55373                       # What write queue length does an incoming req see
system.mem_ctrls.wrQLenPdf::32                  55265                       # What write queue length does an incoming req see
system.mem_ctrls.wrQLenPdf::33                  21103                       # What write queue length does an incoming req see
system.mem_ctrls.wrQLenPdf::34                  11596                       # What write queue length does an incoming req see
system.mem_ctrls.wrQLenPdf::35                   8301                       # What write queue length does an incoming req see
system.mem_ctrls.wrQLenPdf::36                   5896                       # What write queue length does an incoming req see
system.mem_ctrls.wrQLenPdf::37                   4609                       # What write queue length does an incoming req see
system.mem_ctrls.wrQLenPdf::38                   3729                       # What write queue length does an incoming req see
system.mem_ctrls.wrQLenPdf::39                   3412                       # What write queue length does an incoming req see
system.mem_ctrls.wrQLenPdf::40                   3396                       # What write queue length does an incoming req see
system.mem_ctrls.wrQLenPdf::41                   3722                       # What write queue length does an incoming req see
system.mem_ctrls.wrQLenPdf::42                   3980                       # What write queue length does an incoming req see
system.mem_ctrls.wrQLenPdf::43                   4417                       # What write queue length does an incoming req see
system.mem_ctrls.wrQLenPdf::44                   5022                       # What write queue length does an incoming req see
system.mem_ctrls.wrQLenPdf::45                   5632                       # What write queue length does an incoming req see
system.mem_ctrls.wrQLenPdf::46                   6195                       # What write queue length does an incoming req see
system.mem_ctrls.wrQLenPdf::47                   6944                       # What write queue length does an incoming req see
system.mem_ctrls.wrQLenPdf::48                   7671                       # What write queue length does an incoming req see
system.mem_ctrls.wrQLenPdf::49                   8511                       # What write queue length does an incoming req see
system.mem_ctrls.wrQLenPdf::50                   9359                       # What write queue length does an incoming req see
system.mem_ctrls.wrQLenPdf::51                  10158                       # What write queue length does an incoming req see
system.mem_ctrls.wrQLenPdf::52                  10995                       # What write queue length does an incoming req see
system.mem_ctrls.wrQLenPdf::53                  11996                       # What write queue length does an incoming req see
system.mem_ctrls.wrQLenPdf::54                  13825                       # What write queue length does an incoming req see
system.mem_ctrls.wrQLenPdf::55                  12694                       # What write queue length does an incoming req see
system.mem_ctrls.wrQLenPdf::56                  10030                       # What write queue length does an incoming req see
system.mem_ctrls.wrQLenPdf::57                   7394                       # What write queue length does an incoming req see
system.mem_ctrls.wrQLenPdf::58                   4918                       # What write queue length does an incoming req see
system.mem_ctrls.wrQLenPdf::59                   3571                       # What write queue length does an incoming req see
system.mem_ctrls.wrQLenPdf::60                   2477                       # What write queue length does an incoming req see
system.mem_ctrls.wrQLenPdf::61                   1943                       # What write queue length does an incoming req see
system.mem_ctrls.wrQLenPdf::62                   5120                       # What write queue length does an incoming req see
system.mem_ctrls.wrQLenPdf::63                   4348                       # What write queue length does an incoming req see
system.mem_ctrls.bytesPerActivate::samples       357572                       # Bytes accessed per row activation
system.mem_ctrls.bytesPerActivate::mean    471.194120                       # Bytes accessed per row activation
system.mem_ctrls.bytesPerActivate::gmean   328.724994                       # Bytes accessed per row activation
system.mem_ctrls.bytesPerActivate::stdev   369.643656                       # Bytes accessed per row activation
system.mem_ctrls.bytesPerActivate::0-127         2955      0.83%      0.83% # Bytes accessed per row activation
system.mem_ctrls.bytesPerActivate::128-255       137894     38.56%     39.39% # Bytes accessed per row activation
system.mem_ctrls.bytesPerActivate::256-383        41524     11.61%     51.00% # Bytes accessed per row activation
system.mem_ctrls.bytesPerActivate::384-511        31262      8.74%     59.75% # Bytes accessed per row activation
system.mem_ctrls.bytesPerActivate::512-639        19719      5.51%     65.26% # Bytes accessed per row activation
system.mem_ctrls.bytesPerActivate::640-767        14289      4.00%     69.26% # Bytes accessed per row activation
system.mem_ctrls.bytesPerActivate::768-895        12188      3.41%     72.67% # Bytes accessed per row activation
system.mem_ctrls.bytesPerActivate::896-1023        11787      3.30%     75.96% # Bytes accessed per row activation
system.mem_ctrls.bytesPerActivate::1024-1151        85954     24.04%    100.00% # Bytes accessed per row activation
system.mem_ctrls.bytesPerActivate::total       357572                       # Bytes accessed per row activation
system.mem_ctrls.rdPerTurnAround::samples        58274                       # Reads before turning the bus around for writes
system.mem_ctrls.rdPerTurnAround::mean      28.669527                       # Reads before turning the bus around for writes
system.mem_ctrls.rdPerTurnAround::gmean     23.447549                       # Reads before turning the bus around for writes
system.mem_ctrls.rdPerTurnAround::stdev     55.812259                       # Reads before turning the bus around for writes
system.mem_ctrls.rdPerTurnAround::0-255         58116     99.73%     99.73% # Reads before turning the bus around for writes
system.mem_ctrls.rdPerTurnAround::256-511           24      0.04%     99.77% # Reads before turning the bus around for writes
system.mem_ctrls.rdPerTurnAround::512-767          124      0.21%     99.98% # Reads before turning the bus around for writes
system.mem_ctrls.rdPerTurnAround::1024-1279            1      0.00%     99.98% # Reads before turning the bus around for writes
system.mem_ctrls.rdPerTurnAround::1280-1535            1      0.00%     99.99% # Reads before turning the bus around for writes
system.mem_ctrls.rdPerTurnAround::2048-2303            3      0.01%     99.99% # Reads before turning the bus around for writes
system.mem_ctrls.rdPerTurnAround::2304-2559            2      0.00%     99.99% # Reads before turning the bus around for writes
system.mem_ctrls.rdPerTurnAround::3584-3839            1      0.00%    100.00% # Reads before turning the bus around for writes
system.mem_ctrls.rdPerTurnAround::6400-6655            2      0.00%    100.00% # Reads before turning the bus around for writes
system.mem_ctrls.rdPerTurnAround::total         58274                       # Reads before turning the bus around for writes
system.mem_ctrls.wrPerTurnAround::samples        58274                       # Writes before turning the bus around for reads
system.mem_ctrls.wrPerTurnAround::mean      16.054587                       # Writes before turning the bus around for reads
system.mem_ctrls.wrPerTurnAround::gmean     16.050383                       # Writes before turning the bus around for reads
system.mem_ctrls.wrPerTurnAround::stdev      0.405744                       # Writes before turning the bus around for reads
system.mem_ctrls.wrPerTurnAround::16            56846     97.55%     97.55% # Writes before turning the bus around for reads
system.mem_ctrls.wrPerTurnAround::17               22      0.04%     97.59% # Writes before turning the bus around for reads
system.mem_ctrls.wrPerTurnAround::18             1290      2.21%     99.80% # Writes before turning the bus around for reads
system.mem_ctrls.wrPerTurnAround::19               67      0.11%     99.92% # Writes before turning the bus around for reads
system.mem_ctrls.wrPerTurnAround::20               20      0.03%     99.95% # Writes before turning the bus around for reads
system.mem_ctrls.wrPerTurnAround::21                6      0.01%     99.96% # Writes before turning the bus around for reads
system.mem_ctrls.wrPerTurnAround::22                3      0.01%     99.97% # Writes before turning the bus around for reads
system.mem_ctrls.wrPerTurnAround::23                1      0.00%     99.97% # Writes before turning the bus around for reads
system.mem_ctrls.wrPerTurnAround::24                4      0.01%     99.97% # Writes before turning the bus around for reads
system.mem_ctrls.wrPerTurnAround::25                1      0.00%     99.98% # Writes before turning the bus around for reads
system.mem_ctrls.wrPerTurnAround::27                2      0.00%     99.98% # Writes before turning the bus around for reads
system.mem_ctrls.wrPerTurnAround::28                3      0.01%     99.98% # Writes before turning the bus around for reads
system.mem_ctrls.wrPerTurnAround::29                1      0.00%     99.99% # Writes before turning the bus around for reads
system.mem_ctrls.wrPerTurnAround::30                2      0.00%     99.99% # Writes before turning the bus around for reads
system.mem_ctrls.wrPerTurnAround::31                1      0.00%     99.99% # Writes before turning the bus around for reads
system.mem_ctrls.wrPerTurnAround::32                1      0.00%     99.99% # Writes before turning the bus around for reads
system.mem_ctrls.wrPerTurnAround::33                2      0.00%    100.00% # Writes before turning the bus around for reads
system.mem_ctrls.wrPerTurnAround::34                1      0.00%    100.00% # Writes before turning the bus around for reads
system.mem_ctrls.wrPerTurnAround::36                1      0.00%    100.00% # Writes before turning the bus around for reads
system.mem_ctrls.wrPerTurnAround::total         58274                       # Writes before turning the bus around for reads
system.mem_ctrls.totQLat                 147290385081                       # Total ticks spent queuing
system.mem_ctrls.totMemAccLat            179109322581                       # Total ticks spent from burst creation until serviced by the DRAM
system.mem_ctrls.totBusLat                 8485050000                       # Total ticks spent in databus transfers
system.mem_ctrls.avgQLat                     86794.06                       # Average queueing delay per DRAM burst
system.mem_ctrls.avgBusLat                    5000.00                       # Average bus latency per DRAM burst
system.mem_ctrls.avgMemAccLat               105544.06                       # Average memory access latency per DRAM burst
system.mem_ctrls.avgRdBW                       276.33                       # Average DRAM read bandwidth in MiByte/s
system.mem_ctrls.avgWrBW                       152.34                       # Average achieved write bandwidth in MiByte/s
system.mem_ctrls.avgRdBWSys                    276.86                       # Average system read bandwidth in MiByte/s
system.mem_ctrls.avgWrBWSys                    152.46                       # Average system write bandwidth in MiByte/s
system.mem_ctrls.peakBW                      12800.00                       # Theoretical peak bandwidth in MiByte/s
system.mem_ctrls.busUtil                         3.35                       # Data bus utilization in percentage
system.mem_ctrls.busUtilRead                     2.16                       # Data bus utilization in percentage for reads
system.mem_ctrls.busUtilWrite                    1.19                       # Data bus utilization in percentage for writes
system.mem_ctrls.avgRdQLen                       2.38                       # Average read queue length when enqueuing
system.mem_ctrls.avgWrQLen                      28.00                       # Average write queue length when enqueuing
system.mem_ctrls.readRowHits                  1427208                       # Number of row buffer hits during reads
system.mem_ctrls.writeRowHits                  847797                       # Number of row buffer hits during writes
system.mem_ctrls.readRowHitRate                 84.10                       # Row buffer hit rate for reads
system.mem_ctrls.writeRowHitRate                90.62                       # Row buffer hit rate for writes
system.mem_ctrls.avgGap                     298147.51                       # Average gap between requests
system.mem_ctrls.pageHitRate                    86.42                       # Row buffer hit rate, read and write combined
system.mem_ctrls_0.actEnergy               1350027000                       # Energy for activate commands per rank (pJ)
system.mem_ctrls_0.preEnergy                736621875                       # Energy for precharge commands per rank (pJ)
system.mem_ctrls_0.readEnergy              6621903600                       # Energy for read commands per rank (pJ)
system.mem_ctrls_0.writeEnergy             3035011680                       # Energy for write commands per rank (pJ)
system.mem_ctrls_0.refreshEnergy          25684822800                       # Energy for refresh commands per rank (pJ)
system.mem_ctrls_0.actBackEnergy         125166363840                       # Energy for active background per rank (pJ)
system.mem_ctrls_0.preBackEnergy         126151833750                       # Energy for precharge background per rank (pJ)
system.mem_ctrls_0.totalEnergy           288746584545                       # Total energy per rank (pJ)
system.mem_ctrls_0.averagePower            734.266728                       # Core power per rank (mW)
system.mem_ctrls_0.memoryStateTime::IDLE 208768893256                       # Time in different power states
system.mem_ctrls_0.memoryStateTime::REF   13124280000                       # Time in different power states
system.mem_ctrls_0.memoryStateTime::PRE_PDN            0                       # Time in different power states
system.mem_ctrls_0.memoryStateTime::ACT  171141167994                       # Time in different power states
system.mem_ctrls_0.memoryStateTime::ACT_PDN            0                       # Time in different power states
system.mem_ctrls_1.actEnergy               1354986360                       # Energy for activate commands per rank (pJ)
system.mem_ctrls_1.preEnergy                739327875                       # Energy for precharge commands per rank (pJ)
system.mem_ctrls_1.readEnergy              6625803600                       # Energy for read commands per rank (pJ)
system.mem_ctrls_1.writeEnergy             3027449520                       # Energy for write commands per rank (pJ)
system.mem_ctrls_1.refreshEnergy          25684822800                       # Energy for refresh commands per rank (pJ)
system.mem_ctrls_1.actBackEnergy         125818643340                       # Energy for active background per rank (pJ)
system.mem_ctrls_1.preBackEnergy         125579650500                       # Energy for precharge background per rank (pJ)
system.mem_ctrls_1.totalEnergy           288830683995                       # Total energy per rank (pJ)
system.mem_ctrls_1.averagePower            734.480614                       # Core power per rank (mW)
system.mem_ctrls_1.memoryStateTime::IDLE 207915231512                       # Time in different power states
system.mem_ctrls_1.memoryStateTime::REF   13124280000                       # Time in different power states
system.mem_ctrls_1.memoryStateTime::PRE_PDN            0                       # Time in different power states
system.mem_ctrls_1.memoryStateTime::ACT  171994802238                       # Time in different power states
system.mem_ctrls_1.memoryStateTime::ACT_PDN            0                       # Time in different power states
system.ruby_clk_domain.clock                      500                       # Clock period in ticks
system.ruby.phys_mem.bytes_read::gpu.ce      18612572                       # Number of bytes read from this memory
system.ruby.phys_mem.bytes_read::gpu.shader_cores0.data      8973696                       # Number of bytes read from this memory
system.ruby.phys_mem.bytes_read::gpu.shader_cores0.inst          192                       # Number of bytes read from this memory
system.ruby.phys_mem.bytes_read::gpu.shader_cores1.data      8973376                       # Number of bytes read from this memory
system.ruby.phys_mem.bytes_read::gpu.shader_cores1.inst          192                       # Number of bytes read from this memory
system.ruby.phys_mem.bytes_read::gpu.shader_cores2.data      8895040                       # Number of bytes read from this memory
system.ruby.phys_mem.bytes_read::gpu.shader_cores2.inst          208                       # Number of bytes read from this memory
system.ruby.phys_mem.bytes_read::gpu.shader_cores3.data      8941184                       # Number of bytes read from this memory
system.ruby.phys_mem.bytes_read::gpu.shader_cores3.inst          192                       # Number of bytes read from this memory
system.ruby.phys_mem.bytes_read::switch_cpus0.inst   2114927744                       # Number of bytes read from this memory
system.ruby.phys_mem.bytes_read::switch_cpus0.data    293812031                       # Number of bytes read from this memory
system.ruby.phys_mem.bytes_read::total     2463136427                       # Number of bytes read from this memory
system.ruby.phys_mem.bytes_inst_read::gpu.shader_cores0.inst          192                       # Number of instructions bytes read from this memory
system.ruby.phys_mem.bytes_inst_read::gpu.shader_cores1.inst          192                       # Number of instructions bytes read from this memory
system.ruby.phys_mem.bytes_inst_read::gpu.shader_cores2.inst          208                       # Number of instructions bytes read from this memory
system.ruby.phys_mem.bytes_inst_read::gpu.shader_cores3.inst          192                       # Number of instructions bytes read from this memory
system.ruby.phys_mem.bytes_inst_read::switch_cpus0.inst   2114927744                       # Number of instructions bytes read from this memory
system.ruby.phys_mem.bytes_inst_read::total   2114928528                       # Number of instructions bytes read from this memory
system.ruby.phys_mem.bytes_written::gpu.ce     18612572                       # Number of bytes written to this memory
system.ruby.phys_mem.bytes_written::gpu.shader_cores0.data      2170880                       # Number of bytes written to this memory
system.ruby.phys_mem.bytes_written::gpu.shader_cores1.data      2170880                       # Number of bytes written to this memory
system.ruby.phys_mem.bytes_written::gpu.shader_cores2.data      2148416                       # Number of bytes written to this memory
system.ruby.phys_mem.bytes_written::gpu.shader_cores3.data      2160704                       # Number of bytes written to this memory
system.ruby.phys_mem.bytes_written::switch_cpus0.data    202940984                       # Number of bytes written to this memory
system.ruby.phys_mem.bytes_written::total    230204436                       # Number of bytes written to this memory
system.ruby.phys_mem.num_reads::gpu.ce         145416                       # Number of read requests responded to by this memory
system.ruby.phys_mem.num_reads::gpu.shader_cores0.data       108373                       # Number of read requests responded to by this memory
system.ruby.phys_mem.num_reads::gpu.shader_cores0.inst           12                       # Number of read requests responded to by this memory
system.ruby.phys_mem.num_reads::gpu.shader_cores1.data       108394                       # Number of read requests responded to by this memory
system.ruby.phys_mem.num_reads::gpu.shader_cores1.inst           12                       # Number of read requests responded to by this memory
system.ruby.phys_mem.num_reads::gpu.shader_cores2.data       107370                       # Number of read requests responded to by this memory
system.ruby.phys_mem.num_reads::gpu.shader_cores2.inst           13                       # Number of read requests responded to by this memory
system.ruby.phys_mem.num_reads::gpu.shader_cores3.data       107996                       # Number of read requests responded to by this memory
system.ruby.phys_mem.num_reads::gpu.shader_cores3.inst           12                       # Number of read requests responded to by this memory
system.ruby.phys_mem.num_reads::switch_cpus0.inst    264365968                       # Number of read requests responded to by this memory
system.ruby.phys_mem.num_reads::switch_cpus0.data     47558603                       # Number of read requests responded to by this memory
system.ruby.phys_mem.num_reads::total       312502169                       # Number of read requests responded to by this memory
system.ruby.phys_mem.num_writes::gpu.ce        145416                       # Number of write requests responded to by this memory
system.ruby.phys_mem.num_writes::gpu.shader_cores0.data        56504                       # Number of write requests responded to by this memory
system.ruby.phys_mem.num_writes::gpu.shader_cores1.data        56514                       # Number of write requests responded to by this memory
system.ruby.phys_mem.num_writes::gpu.shader_cores2.data        56006                       # Number of write requests responded to by this memory
system.ruby.phys_mem.num_writes::gpu.shader_cores3.data        56258                       # Number of write requests responded to by this memory
system.ruby.phys_mem.num_writes::switch_cpus0.data     32754595                       # Number of write requests responded to by this memory
system.ruby.phys_mem.num_writes::total       33125293                       # Number of write requests responded to by this memory
system.ruby.phys_mem.bw_read::gpu.ce         47356030                       # Total read bandwidth from this memory (bytes/s)
system.ruby.phys_mem.bw_read::gpu.shader_cores0.data     22831805                       # Total read bandwidth from this memory (bytes/s)
system.ruby.phys_mem.bw_read::gpu.shader_cores0.inst          489                       # Total read bandwidth from this memory (bytes/s)
system.ruby.phys_mem.bw_read::gpu.shader_cores1.data     22830991                       # Total read bandwidth from this memory (bytes/s)
system.ruby.phys_mem.bw_read::gpu.shader_cores1.inst          489                       # Total read bandwidth from this memory (bytes/s)
system.ruby.phys_mem.bw_read::gpu.shader_cores2.data     22631681                       # Total read bandwidth from this memory (bytes/s)
system.ruby.phys_mem.bw_read::gpu.shader_cores2.inst          529                       # Total read bandwidth from this memory (bytes/s)
system.ruby.phys_mem.bw_read::gpu.shader_cores3.data     22749085                       # Total read bandwidth from this memory (bytes/s)
system.ruby.phys_mem.bw_read::gpu.shader_cores3.inst          489                       # Total read bandwidth from this memory (bytes/s)
system.ruby.phys_mem.bw_read::switch_cpus0.inst   5381017847                       # Total read bandwidth from this memory (bytes/s)
system.ruby.phys_mem.bw_read::switch_cpus0.data    747546949                       # Total read bandwidth from this memory (bytes/s)
system.ruby.phys_mem.bw_read::total        6266966382                       # Total read bandwidth from this memory (bytes/s)
system.ruby.phys_mem.bw_inst_read::gpu.shader_cores0.inst          489                       # Instruction read bandwidth from this memory (bytes/s)
system.ruby.phys_mem.bw_inst_read::gpu.shader_cores1.inst          489                       # Instruction read bandwidth from this memory (bytes/s)
system.ruby.phys_mem.bw_inst_read::gpu.shader_cores2.inst          529                       # Instruction read bandwidth from this memory (bytes/s)
system.ruby.phys_mem.bw_inst_read::gpu.shader_cores3.inst          489                       # Instruction read bandwidth from this memory (bytes/s)
system.ruby.phys_mem.bw_inst_read::switch_cpus0.inst   5381017847                       # Instruction read bandwidth from this memory (bytes/s)
system.ruby.phys_mem.bw_inst_read::total   5381019841                       # Instruction read bandwidth from this memory (bytes/s)
system.ruby.phys_mem.bw_write::gpu.ce        47356030                       # Write bandwidth from this memory (bytes/s)
system.ruby.phys_mem.bw_write::gpu.shader_cores0.data      5523377                       # Write bandwidth from this memory (bytes/s)
system.ruby.phys_mem.bw_write::gpu.shader_cores1.data      5523377                       # Write bandwidth from this memory (bytes/s)
system.ruby.phys_mem.bw_write::gpu.shader_cores2.data      5466222                       # Write bandwidth from this memory (bytes/s)
system.ruby.phys_mem.bw_write::gpu.shader_cores3.data      5497487                       # Write bandwidth from this memory (bytes/s)
system.ruby.phys_mem.bw_write::switch_cpus0.data    516343435                       # Write bandwidth from this memory (bytes/s)
system.ruby.phys_mem.bw_write::total        585709929                       # Write bandwidth from this memory (bytes/s)
system.ruby.phys_mem.bw_total::gpu.ce        94712060                       # Total bandwidth to/from this memory (bytes/s)
system.ruby.phys_mem.bw_total::gpu.shader_cores0.data     28355183                       # Total bandwidth to/from this memory (bytes/s)
system.ruby.phys_mem.bw_total::gpu.shader_cores0.inst          489                       # Total bandwidth to/from this memory (bytes/s)
system.ruby.phys_mem.bw_total::gpu.shader_cores1.data     28354368                       # Total bandwidth to/from this memory (bytes/s)
system.ruby.phys_mem.bw_total::gpu.shader_cores1.inst          489                       # Total bandwidth to/from this memory (bytes/s)
system.ruby.phys_mem.bw_total::gpu.shader_cores2.data     28097903                       # Total bandwidth to/from this memory (bytes/s)
system.ruby.phys_mem.bw_total::gpu.shader_cores2.inst          529                       # Total bandwidth to/from this memory (bytes/s)
system.ruby.phys_mem.bw_total::gpu.shader_cores3.data     28246571                       # Total bandwidth to/from this memory (bytes/s)
system.ruby.phys_mem.bw_total::gpu.shader_cores3.inst          489                       # Total bandwidth to/from this memory (bytes/s)
system.ruby.phys_mem.bw_total::switch_cpus0.inst   5381017847                       # Total bandwidth to/from this memory (bytes/s)
system.ruby.phys_mem.bw_total::switch_cpus0.data   1263890384                       # Total bandwidth to/from this memory (bytes/s)
system.ruby.phys_mem.bw_total::total       6852676311                       # Total bandwidth to/from this memory (bytes/s)
system.cpu_voltage_domain.voltage                   1                       # Voltage in Volts
system.cpu_clk_domain.clock                       500                       # Clock period in ticks
system.cpu0.apic_clk_domain.clock                8000                       # Clock period in ticks
system.cpu0.workload.num_syscalls                 155                       # Number of system calls
system.cpu0.numCycles                               0                       # number of cpu cycles simulated
system.cpu0.numWorkItemsStarted                     0                       # number of work items this cpu started
system.cpu0.numWorkItemsCompleted                   0                       # number of work items this cpu completed
system.cpu0.committedInsts                          0                       # Number of instructions committed
system.cpu0.committedOps                            0                       # Number of ops (including micro ops) committed
system.cpu0.num_int_alu_accesses                    0                       # Number of integer alu accesses
system.cpu0.num_fp_alu_accesses                     0                       # Number of float alu accesses
system.cpu0.num_func_calls                          0                       # number of times a function call or return occured
system.cpu0.num_conditional_control_insts            0                       # number of instructions that are conditional controls
system.cpu0.num_int_insts                           0                       # number of integer instructions
system.cpu0.num_fp_insts                            0                       # number of float instructions
system.cpu0.num_int_register_reads                  0                       # number of times the integer registers were read
system.cpu0.num_int_register_writes                 0                       # number of times the integer registers were written
system.cpu0.num_fp_register_reads                   0                       # number of times the floating registers were read
system.cpu0.num_fp_register_writes                  0                       # number of times the floating registers were written
system.cpu0.num_mem_refs                            0                       # number of memory refs
system.cpu0.num_load_insts                          0                       # Number of load instructions
system.cpu0.num_store_insts                         0                       # Number of store instructions
system.cpu0.num_idle_cycles                         0                       # Number of idle cycles
system.cpu0.num_busy_cycles                         0                       # Number of busy cycles
system.cpu0.not_idle_fraction                       1                       # Percentage of non-idle cycles
system.cpu0.idle_fraction                           0                       # Percentage of idle cycles
system.cpu0.op_class::No_OpClass                    0                       # Class of executed instruction
system.cpu0.op_class::IntAlu                        0                       # Class of executed instruction
system.cpu0.op_class::IntMult                       0                       # Class of executed instruction
system.cpu0.op_class::IntDiv                        0                       # Class of executed instruction
system.cpu0.op_class::FloatAdd                      0                       # Class of executed instruction
system.cpu0.op_class::FloatCmp                      0                       # Class of executed instruction
system.cpu0.op_class::FloatCvt                      0                       # Class of executed instruction
system.cpu0.op_class::FloatMult                     0                       # Class of executed instruction
system.cpu0.op_class::FloatDiv                      0                       # Class of executed instruction
system.cpu0.op_class::FloatSqrt                     0                       # Class of executed instruction
system.cpu0.op_class::SimdAdd                       0                       # Class of executed instruction
system.cpu0.op_class::SimdAddAcc                    0                       # Class of executed instruction
system.cpu0.op_class::SimdAlu                       0                       # Class of executed instruction
system.cpu0.op_class::SimdCmp                       0                       # Class of executed instruction
system.cpu0.op_class::SimdCvt                       0                       # Class of executed instruction
system.cpu0.op_class::SimdMisc                      0                       # Class of executed instruction
system.cpu0.op_class::SimdMult                      0                       # Class of executed instruction
system.cpu0.op_class::SimdMultAcc                   0                       # Class of executed instruction
system.cpu0.op_class::SimdShift                     0                       # Class of executed instruction
system.cpu0.op_class::SimdShiftAcc                  0                       # Class of executed instruction
system.cpu0.op_class::SimdSqrt                      0                       # Class of executed instruction
system.cpu0.op_class::SimdFloatAdd                  0                       # Class of executed instruction
system.cpu0.op_class::SimdFloatAlu                  0                       # Class of executed instruction
system.cpu0.op_class::SimdFloatCmp                  0                       # Class of executed instruction
system.cpu0.op_class::SimdFloatCvt                  0                       # Class of executed instruction
system.cpu0.op_class::SimdFloatDiv                  0                       # Class of executed instruction
system.cpu0.op_class::SimdFloatMisc                 0                       # Class of executed instruction
system.cpu0.op_class::SimdFloatMult                 0                       # Class of executed instruction
system.cpu0.op_class::SimdFloatMultAcc              0                       # Class of executed instruction
system.cpu0.op_class::SimdFloatSqrt                 0                       # Class of executed instruction
system.cpu0.op_class::MemRead                       0                       # Class of executed instruction
system.cpu0.op_class::MemWrite                      0                       # Class of executed instruction
system.cpu0.op_class::IprAccess                     0                       # Class of executed instruction
system.cpu0.op_class::InstPrefetch                  0                       # Class of executed instruction
system.cpu0.op_class::total                         0                       # Class of executed instruction
system.cpu1.apic_clk_domain.clock                8000                       # Clock period in ticks
system.cpu1.numCycles                               0                       # number of cpu cycles simulated
system.cpu1.numWorkItemsStarted                     0                       # number of work items this cpu started
system.cpu1.numWorkItemsCompleted                   0                       # number of work items this cpu completed
system.cpu1.committedInsts                          0                       # Number of instructions committed
system.cpu1.committedOps                            0                       # Number of ops (including micro ops) committed
system.cpu1.num_int_alu_accesses                    0                       # Number of integer alu accesses
system.cpu1.num_fp_alu_accesses                     0                       # Number of float alu accesses
system.cpu1.num_func_calls                          0                       # number of times a function call or return occured
system.cpu1.num_conditional_control_insts            0                       # number of instructions that are conditional controls
system.cpu1.num_int_insts                           0                       # number of integer instructions
system.cpu1.num_fp_insts                            0                       # number of float instructions
system.cpu1.num_int_register_reads                  0                       # number of times the integer registers were read
system.cpu1.num_int_register_writes                 0                       # number of times the integer registers were written
system.cpu1.num_fp_register_reads                   0                       # number of times the floating registers were read
system.cpu1.num_fp_register_writes                  0                       # number of times the floating registers were written
system.cpu1.num_mem_refs                            0                       # number of memory refs
system.cpu1.num_load_insts                          0                       # Number of load instructions
system.cpu1.num_store_insts                         0                       # Number of store instructions
system.cpu1.num_idle_cycles                         0                       # Number of idle cycles
system.cpu1.num_busy_cycles                         0                       # Number of busy cycles
system.cpu1.not_idle_fraction                       0                       # Percentage of non-idle cycles
system.cpu1.idle_fraction                           1                       # Percentage of idle cycles
system.cpu1.op_class::No_OpClass                    0                       # Class of executed instruction
system.cpu1.op_class::IntAlu                        0                       # Class of executed instruction
system.cpu1.op_class::IntMult                       0                       # Class of executed instruction
system.cpu1.op_class::IntDiv                        0                       # Class of executed instruction
system.cpu1.op_class::FloatAdd                      0                       # Class of executed instruction
system.cpu1.op_class::FloatCmp                      0                       # Class of executed instruction
system.cpu1.op_class::FloatCvt                      0                       # Class of executed instruction
system.cpu1.op_class::FloatMult                     0                       # Class of executed instruction
system.cpu1.op_class::FloatDiv                      0                       # Class of executed instruction
system.cpu1.op_class::FloatSqrt                     0                       # Class of executed instruction
system.cpu1.op_class::SimdAdd                       0                       # Class of executed instruction
system.cpu1.op_class::SimdAddAcc                    0                       # Class of executed instruction
system.cpu1.op_class::SimdAlu                       0                       # Class of executed instruction
system.cpu1.op_class::SimdCmp                       0                       # Class of executed instruction
system.cpu1.op_class::SimdCvt                       0                       # Class of executed instruction
system.cpu1.op_class::SimdMisc                      0                       # Class of executed instruction
system.cpu1.op_class::SimdMult                      0                       # Class of executed instruction
system.cpu1.op_class::SimdMultAcc                   0                       # Class of executed instruction
system.cpu1.op_class::SimdShift                     0                       # Class of executed instruction
system.cpu1.op_class::SimdShiftAcc                  0                       # Class of executed instruction
system.cpu1.op_class::SimdSqrt                      0                       # Class of executed instruction
system.cpu1.op_class::SimdFloatAdd                  0                       # Class of executed instruction
system.cpu1.op_class::SimdFloatAlu                  0                       # Class of executed instruction
system.cpu1.op_class::SimdFloatCmp                  0                       # Class of executed instruction
system.cpu1.op_class::SimdFloatCvt                  0                       # Class of executed instruction
system.cpu1.op_class::SimdFloatDiv                  0                       # Class of executed instruction
system.cpu1.op_class::SimdFloatMisc                 0                       # Class of executed instruction
system.cpu1.op_class::SimdFloatMult                 0                       # Class of executed instruction
system.cpu1.op_class::SimdFloatMultAcc              0                       # Class of executed instruction
system.cpu1.op_class::SimdFloatSqrt                 0                       # Class of executed instruction
system.cpu1.op_class::MemRead                       0                       # Class of executed instruction
system.cpu1.op_class::MemWrite                      0                       # Class of executed instruction
system.cpu1.op_class::IprAccess                     0                       # Class of executed instruction
system.cpu1.op_class::InstPrefetch                  0                       # Class of executed instruction
system.cpu1.op_class::total                         0                       # Class of executed instruction
system.gpu.clk_domain.voltage_domain.voltage            1                       # Voltage in Volts
system.gpu.clk_domain.clock                      1429                       # Clock period in ticks
system.gpu.dram_wrapper.clk_domain.clock          541                       # Clock period in ticks
system.gpu.icnt_wrapper.clk_domain.clock         2858                       # Clock period in ticks
system.ruby.delayHist::bucket_size                256                       # delay histogram for all message
system.ruby.delayHist::max_bucket                2559                       # delay histogram for all message
system.ruby.delayHist::samples                7924467                       # delay histogram for all message
system.ruby.delayHist::mean                  3.763467                       # delay histogram for all message
system.ruby.delayHist::stdev                19.426747                       # delay histogram for all message
system.ruby.delayHist                    |     7915809     99.89%     99.89% |        6419      0.08%     99.97% |        1799      0.02%     99.99% |         384      0.00%    100.00% |          53      0.00%    100.00% |           3      0.00%    100.00% |           0      0.00%    100.00% |           0      0.00%    100.00% |           0      0.00%    100.00% |           0      0.00%    100.00% # delay histogram for all message
system.ruby.delayHist::total                  7924467                       # delay histogram for all message
system.ruby.outstanding_req_hist::bucket_size            8                      
system.ruby.outstanding_req_hist::max_bucket           79                      
system.ruby.outstanding_req_hist::samples    345627463                      
system.ruby.outstanding_req_hist::mean       1.087115                      
system.ruby.outstanding_req_hist::gmean      1.008224                      
system.ruby.outstanding_req_hist::stdev      2.066258                      
system.ruby.outstanding_req_hist         |   344861143     99.78%     99.78% |       95781      0.03%     99.81% |      120307      0.03%     99.84% |      125575      0.04%     99.88% |       93927      0.03%     99.90% |       39049      0.01%     99.92% |        1299      0.00%     99.92% |          85      0.00%     99.92% |      290297      0.08%    100.00% |           0      0.00%    100.00%
system.ruby.outstanding_req_hist::total     345627463                      
system.ruby.latency_hist::bucket_size            2048                      
system.ruby.latency_hist::max_bucket            20479                      
system.ruby.latency_hist::samples           345627462                      
system.ruby.latency_hist::mean               5.141438                      
system.ruby.latency_hist::gmean              1.021966                      
system.ruby.latency_hist::stdev            126.120124                      
system.ruby.latency_hist                 |   345306463     99.91%     99.91% |      199467      0.06%     99.96% |      100967      0.03%     99.99% |       19553      0.01%    100.00% |         950      0.00%    100.00% |          61      0.00%    100.00% |           1      0.00%    100.00% |           0      0.00%    100.00% |           0      0.00%    100.00% |           0      0.00%    100.00%
system.ruby.latency_hist::total             345627462                      
system.ruby.hit_latency_hist::bucket_size            1                      
system.ruby.hit_latency_hist::max_bucket            9                      
system.ruby.hit_latency_hist::samples       344098942                      
system.ruby.hit_latency_hist::mean                  1                      
system.ruby.hit_latency_hist::gmean                 1                      
system.ruby.hit_latency_hist             |           0      0.00%      0.00% |   344098942    100.00%    100.00% |           0      0.00%    100.00% |           0      0.00%    100.00% |           0      0.00%    100.00% |           0      0.00%    100.00% |           0      0.00%    100.00% |           0      0.00%    100.00% |           0      0.00%    100.00% |           0      0.00%    100.00%
system.ruby.hit_latency_hist::total         344098942                      
system.ruby.miss_latency_hist::bucket_size         2048                      
system.ruby.miss_latency_hist::max_bucket        20479                      
system.ruby.miss_latency_hist::samples        1528520                      
system.ruby.miss_latency_hist::mean        937.457987                      
system.ruby.miss_latency_hist::gmean       136.077494                      
system.ruby.miss_latency_hist::stdev      1650.345547                      
system.ruby.miss_latency_hist            |     1207521     79.00%     79.00% |      199467     13.05%     92.05% |      100967      6.61%     98.65% |       19553      1.28%     99.93% |         950      0.06%    100.00% |          61      0.00%    100.00% |           1      0.00%    100.00% |           0      0.00%    100.00% |           0      0.00%    100.00% |           0      0.00%    100.00%
system.ruby.miss_latency_hist::total          1528520                      
system.gpu.shader_mmu.numPagefaults                 0                       # Number of Pagefaults
system.gpu.shader_mmu.numPagewalks              45754                       # Number of Pagewalks
system.gpu.shader_mmu.totalRequests             45754                       # Total number of requests
system.gpu.shader_mmu.l2hits                        0                       # Hits in the shared L2
system.gpu.shader_mmu.prefetchHits                  0                       # Number of prefetch hits
system.gpu.shader_mmu.numPrefetches                 0                       # Number of prefetchs
system.gpu.shader_mmu.prefetchFaults                0                       # Number of faults caused by prefetches
system.gpu.shader_mmu.pagefaultLatency::samples            0                       # Latency to complete the pagefault
system.gpu.shader_mmu.pagefaultLatency::mean          nan                       # Latency to complete the pagefault
system.gpu.shader_mmu.pagefaultLatency::gmean          nan                       # Latency to complete the pagefault
system.gpu.shader_mmu.pagefaultLatency::stdev          nan                       # Latency to complete the pagefault
system.gpu.shader_mmu.pagefaultLatency::0            0                       # Latency to complete the pagefault
system.gpu.shader_mmu.pagefaultLatency::1            0                       # Latency to complete the pagefault
system.gpu.shader_mmu.pagefaultLatency::2            0                       # Latency to complete the pagefault
system.gpu.shader_mmu.pagefaultLatency::3            0                       # Latency to complete the pagefault
system.gpu.shader_mmu.pagefaultLatency::4            0                       # Latency to complete the pagefault
system.gpu.shader_mmu.pagefaultLatency::5            0                       # Latency to complete the pagefault
system.gpu.shader_mmu.pagefaultLatency::6            0                       # Latency to complete the pagefault
system.gpu.shader_mmu.pagefaultLatency::7            0                       # Latency to complete the pagefault
system.gpu.shader_mmu.pagefaultLatency::8            0                       # Latency to complete the pagefault
system.gpu.shader_mmu.pagefaultLatency::9            0                       # Latency to complete the pagefault
system.gpu.shader_mmu.pagefaultLatency::10            0                       # Latency to complete the pagefault
system.gpu.shader_mmu.pagefaultLatency::11            0                       # Latency to complete the pagefault
system.gpu.shader_mmu.pagefaultLatency::12            0                       # Latency to complete the pagefault
system.gpu.shader_mmu.pagefaultLatency::13            0                       # Latency to complete the pagefault
system.gpu.shader_mmu.pagefaultLatency::14            0                       # Latency to complete the pagefault
system.gpu.shader_mmu.pagefaultLatency::15            0                       # Latency to complete the pagefault
system.gpu.shader_mmu.pagefaultLatency::16            0                       # Latency to complete the pagefault
system.gpu.shader_mmu.pagefaultLatency::17            0                       # Latency to complete the pagefault
system.gpu.shader_mmu.pagefaultLatency::18            0                       # Latency to complete the pagefault
system.gpu.shader_mmu.pagefaultLatency::19            0                       # Latency to complete the pagefault
system.gpu.shader_mmu.pagefaultLatency::20            0                       # Latency to complete the pagefault
system.gpu.shader_mmu.pagefaultLatency::21            0                       # Latency to complete the pagefault
system.gpu.shader_mmu.pagefaultLatency::22            0                       # Latency to complete the pagefault
system.gpu.shader_mmu.pagefaultLatency::23            0                       # Latency to complete the pagefault
system.gpu.shader_mmu.pagefaultLatency::24            0                       # Latency to complete the pagefault
system.gpu.shader_mmu.pagefaultLatency::25            0                       # Latency to complete the pagefault
system.gpu.shader_mmu.pagefaultLatency::26            0                       # Latency to complete the pagefault
system.gpu.shader_mmu.pagefaultLatency::27            0                       # Latency to complete the pagefault
system.gpu.shader_mmu.pagefaultLatency::28            0                       # Latency to complete the pagefault
system.gpu.shader_mmu.pagefaultLatency::29            0                       # Latency to complete the pagefault
system.gpu.shader_mmu.pagefaultLatency::30            0                       # Latency to complete the pagefault
system.gpu.shader_mmu.pagefaultLatency::31            0                       # Latency to complete the pagefault
system.gpu.shader_mmu.pagefaultLatency::total            0                       # Latency to complete the pagefault
system.gpu.shader_mmu.concurrentWalks::samples        45754                       # Number of outstanding walks
system.gpu.shader_mmu.concurrentWalks::mean            0                       # Number of outstanding walks
system.gpu.shader_mmu.concurrentWalks::gmean            0                       # Number of outstanding walks
system.gpu.shader_mmu.concurrentWalks::stdev            0                       # Number of outstanding walks
system.gpu.shader_mmu.concurrentWalks::0        45754    100.00%    100.00% # Number of outstanding walks
system.gpu.shader_mmu.concurrentWalks::1            0      0.00%    100.00% # Number of outstanding walks
system.gpu.shader_mmu.concurrentWalks::2            0      0.00%    100.00% # Number of outstanding walks
system.gpu.shader_mmu.concurrentWalks::3            0      0.00%    100.00% # Number of outstanding walks
system.gpu.shader_mmu.concurrentWalks::4            0      0.00%    100.00% # Number of outstanding walks
system.gpu.shader_mmu.concurrentWalks::5            0      0.00%    100.00% # Number of outstanding walks
system.gpu.shader_mmu.concurrentWalks::6            0      0.00%    100.00% # Number of outstanding walks
system.gpu.shader_mmu.concurrentWalks::7            0      0.00%    100.00% # Number of outstanding walks
system.gpu.shader_mmu.concurrentWalks::8            0      0.00%    100.00% # Number of outstanding walks
system.gpu.shader_mmu.concurrentWalks::9            0      0.00%    100.00% # Number of outstanding walks
system.gpu.shader_mmu.concurrentWalks::10            0      0.00%    100.00% # Number of outstanding walks
system.gpu.shader_mmu.concurrentWalks::11            0      0.00%    100.00% # Number of outstanding walks
system.gpu.shader_mmu.concurrentWalks::12            0      0.00%    100.00% # Number of outstanding walks
system.gpu.shader_mmu.concurrentWalks::13            0      0.00%    100.00% # Number of outstanding walks
system.gpu.shader_mmu.concurrentWalks::14            0      0.00%    100.00% # Number of outstanding walks
system.gpu.shader_mmu.concurrentWalks::15            0      0.00%    100.00% # Number of outstanding walks
system.gpu.shader_mmu.concurrentWalks::total        45754                       # Number of outstanding walks
system.gpu.shader_mmu.pagewalkLatency::samples        45754                       # Latency to complete the pagewalk
system.gpu.shader_mmu.pagewalkLatency::mean            0                       # Latency to complete the pagewalk
system.gpu.shader_mmu.pagewalkLatency::gmean            0                       # Latency to complete the pagewalk
system.gpu.shader_mmu.pagewalkLatency::stdev            0                       # Latency to complete the pagewalk
system.gpu.shader_mmu.pagewalkLatency::0        45754    100.00%    100.00% # Latency to complete the pagewalk
system.gpu.shader_mmu.pagewalkLatency::1            0      0.00%    100.00% # Latency to complete the pagewalk
system.gpu.shader_mmu.pagewalkLatency::2            0      0.00%    100.00% # Latency to complete the pagewalk
system.gpu.shader_mmu.pagewalkLatency::3            0      0.00%    100.00% # Latency to complete the pagewalk
system.gpu.shader_mmu.pagewalkLatency::4            0      0.00%    100.00% # Latency to complete the pagewalk
system.gpu.shader_mmu.pagewalkLatency::5            0      0.00%    100.00% # Latency to complete the pagewalk
system.gpu.shader_mmu.pagewalkLatency::6            0      0.00%    100.00% # Latency to complete the pagewalk
system.gpu.shader_mmu.pagewalkLatency::7            0      0.00%    100.00% # Latency to complete the pagewalk
system.gpu.shader_mmu.pagewalkLatency::8            0      0.00%    100.00% # Latency to complete the pagewalk
system.gpu.shader_mmu.pagewalkLatency::9            0      0.00%    100.00% # Latency to complete the pagewalk
system.gpu.shader_mmu.pagewalkLatency::10            0      0.00%    100.00% # Latency to complete the pagewalk
system.gpu.shader_mmu.pagewalkLatency::11            0      0.00%    100.00% # Latency to complete the pagewalk
system.gpu.shader_mmu.pagewalkLatency::12            0      0.00%    100.00% # Latency to complete the pagewalk
system.gpu.shader_mmu.pagewalkLatency::13            0      0.00%    100.00% # Latency to complete the pagewalk
system.gpu.shader_mmu.pagewalkLatency::14            0      0.00%    100.00% # Latency to complete the pagewalk
system.gpu.shader_mmu.pagewalkLatency::15            0      0.00%    100.00% # Latency to complete the pagewalk
system.gpu.shader_mmu.pagewalkLatency::16            0      0.00%    100.00% # Latency to complete the pagewalk
system.gpu.shader_mmu.pagewalkLatency::17            0      0.00%    100.00% # Latency to complete the pagewalk
system.gpu.shader_mmu.pagewalkLatency::18            0      0.00%    100.00% # Latency to complete the pagewalk
system.gpu.shader_mmu.pagewalkLatency::19            0      0.00%    100.00% # Latency to complete the pagewalk
system.gpu.shader_mmu.pagewalkLatency::20            0      0.00%    100.00% # Latency to complete the pagewalk
system.gpu.shader_mmu.pagewalkLatency::21            0      0.00%    100.00% # Latency to complete the pagewalk
system.gpu.shader_mmu.pagewalkLatency::22            0      0.00%    100.00% # Latency to complete the pagewalk
system.gpu.shader_mmu.pagewalkLatency::23            0      0.00%    100.00% # Latency to complete the pagewalk
system.gpu.shader_mmu.pagewalkLatency::24            0      0.00%    100.00% # Latency to complete the pagewalk
system.gpu.shader_mmu.pagewalkLatency::25            0      0.00%    100.00% # Latency to complete the pagewalk
system.gpu.shader_mmu.pagewalkLatency::26            0      0.00%    100.00% # Latency to complete the pagewalk
system.gpu.shader_mmu.pagewalkLatency::27            0      0.00%    100.00% # Latency to complete the pagewalk
system.gpu.shader_mmu.pagewalkLatency::28            0      0.00%    100.00% # Latency to complete the pagewalk
system.gpu.shader_mmu.pagewalkLatency::29            0      0.00%    100.00% # Latency to complete the pagewalk
system.gpu.shader_mmu.pagewalkLatency::30            0      0.00%    100.00% # Latency to complete the pagewalk
system.gpu.shader_mmu.pagewalkLatency::31            0      0.00%    100.00% # Latency to complete the pagewalk
system.gpu.shader_mmu.pagewalkLatency::total        45754                       # Latency to complete the pagewalk
system.gpu.kernels_started                          2                       # Number of kernels started
system.gpu.kernels_completed                        2                       # Number of kernels completed
system.gpu.ce.device_dtb.hits                       0                       # Number of hits in this TLB
system.gpu.ce.device_dtb.misses                     0                       # Number of misses in this TLB
system.gpu.ce.device_dtb.hitRate                  nan                       # Hit rate for this TLB
system.gpu.ce.host_dtb.hits                     99663                       # Number of hits in this TLB
system.gpu.ce.host_dtb.misses                   45754                       # Number of misses in this TLB
system.gpu.ce.host_dtb.hitRate               0.685360                       # Hit rate for this TLB
system.gpu.ce.numOperations                         8                       # Number of copy/memset operations
system.gpu.ce.opBytesRead                    18612572                       # Number of copy bytes read
system.gpu.ce.opBytesWritten                 18612572                       # Number of copy/memset bytes written
system.gpu.ce.opTimeTicks                  6309020182                       # Total time spent in copy/memset operations
system.gpu.shader_cores0.itb.hits                   0                       # Number of hits in this TLB
system.gpu.shader_cores0.itb.misses                 0                       # Number of misses in this TLB
system.gpu.shader_cores0.itb.hitRate              nan                       # Hit rate for this TLB
system.gpu.shader_cores0.local_loads                0                       # Number of loads from local space
system.gpu.shader_cores0.local_stores               0                       # Number of stores to local space
system.gpu.shader_cores0.shared_loads         1032192                       # Number of loads from shared space
system.gpu.shader_cores0.shared_stores         786432                       # Number of stores to shared space
system.gpu.shader_cores0.param_kernel_loads      1872896                       # Number of loads from kernel parameter space
system.gpu.shader_cores0.param_local_loads            0                       # Number of loads from local parameter space
system.gpu.shader_cores0.param_local_stores            0                       # Number of stores to local parameter space
system.gpu.shader_cores0.const_loads                0                       # Number of loads from constant space
system.gpu.shader_cores0.tex_loads                  0                       # Number of loads from texture space
system.gpu.shader_cores0.global_loads         2120704                       # Number of loads from global space
system.gpu.shader_cores0.global_stores         542720                       # Number of stores to global space
system.gpu.shader_cores0.surf_loads                 0                       # Number of loads from surface space
system.gpu.shader_cores0.generic_loads              0                       # Number of loads from generic spaces (global, shared, local)
system.gpu.shader_cores0.generic_stores             0                       # Number of stores to generic spaces (global, shared, local)
system.gpu.shader_cores0.inst_cache_requests           12                       # Number of instruction cache requests sent
system.gpu.shader_cores0.inst_cache_retries            0                       # Number of instruction cache retries
system.gpu.shader_cores0.inst_counts::0             0                       # Inst counts: 1: ALU, 2: MAD, 3: CTRL, 4: SFU, 5: MEM, 6: TEX, 7: NOP
system.gpu.shader_cores0.inst_counts::1      33376256                       # Inst counts: 1: ALU, 2: MAD, 3: CTRL, 4: SFU, 5: MEM, 6: TEX, 7: NOP
system.gpu.shader_cores0.inst_counts::2        526336                       # Inst counts: 1: ALU, 2: MAD, 3: CTRL, 4: SFU, 5: MEM, 6: TEX, 7: NOP
system.gpu.shader_cores0.inst_counts::3       4967424                       # Inst counts: 1: ALU, 2: MAD, 3: CTRL, 4: SFU, 5: MEM, 6: TEX, 7: NOP
system.gpu.shader_cores0.inst_counts::4       1572864                       # Inst counts: 1: ALU, 2: MAD, 3: CTRL, 4: SFU, 5: MEM, 6: TEX, 7: NOP
system.gpu.shader_cores0.inst_counts::5       6354944                       # Inst counts: 1: ALU, 2: MAD, 3: CTRL, 4: SFU, 5: MEM, 6: TEX, 7: NOP
system.gpu.shader_cores0.inst_counts::6             0                       # Inst counts: 1: ALU, 2: MAD, 3: CTRL, 4: SFU, 5: MEM, 6: TEX, 7: NOP
system.gpu.shader_cores0.inst_counts::7             0                       # Inst counts: 1: ALU, 2: MAD, 3: CTRL, 4: SFU, 5: MEM, 6: TEX, 7: NOP
system.gpu.shader_cores0.activeCycles         2815219                       # Number of cycles this shader was executing a CTA
system.gpu.shader_cores0.notStalledCycles      1192336                       # Number of cycles this shader was actually executing at least one instance
system.gpu.shader_cores0.instInstances       46797824                       # Total instructions executed by all PEs in the core
[...]
system.ruby.L1Cache_Controller.I.Store::total        49802                      
system.ruby.L1Cache_Controller.I.L1_Replacement |         691      0.54%      0.54% |           0      0.00%      0.54% |       31909     24.89%     25.43% |       31928     24.91%     50.34% |       31766     24.78%     75.12% |       31879     24.87%     99.99% |           0      0.00%     99.99% |          16      0.01%    100.00%
system.ruby.L1Cache_Controller.I.L1_Replacement::total       128189                      
system.ruby.L1Cache_Controller.S.Load    |          81      0.06%      0.06% |           0      0.00%      0.06% |       34859     25.01%     25.07% |       35014     25.12%     50.19% |       34460     24.73%     74.92% |       34954     25.08%    100.00% |           0      0.00%    100.00% |           0      0.00%    100.00%
system.ruby.L1Cache_Controller.S.Load::total       139368                      
system.ruby.L1Cache_Controller.S.Ifetch  |   263900510    100.00%    100.00% |           0      0.00%    100.00% |           0      0.00%    100.00% |           0      0.00%    100.00% |           0      0.00%    100.00% |           0      0.00%    100.00% |           0      0.00%    100.00% |           0      0.00%    100.00%
system.ruby.L1Cache_Controller.S.Ifetch::total    263900510                      
system.ruby.L1Cache_Controller.S.Store   |           0      0.00%      0.00% |           0      0.00%      0.00% |         778     24.34%     24.34% |         776     24.27%     48.61% |         829     25.93%     74.54% |         814     25.46%    100.00% |           0      0.00%    100.00% |           0      0.00%    100.00%
system.ruby.L1Cache_Controller.S.Store::total         3197                      
system.ruby.L1Cache_Controller.S.Inv     |        3946      9.29%      9.29% |           0      0.00%      9.29% |        9597     22.59%     31.88% |        9639     22.69%     54.57% |        9556     22.49%     77.06% |        9735     22.91%     99.97% |           0      0.00%     99.97% |          11      0.03%    100.00%
system.ruby.L1Cache_Controller.S.Inv::total        42484                      
system.ruby.L1Cache_Controller.S.L1_Replacement |      461728     99.99%     99.99% |           0      0.00%     99.99% |           5      0.00%     99.99% |          10      0.00%     99.99% |           8      0.00%     99.99% |          13      0.00%    100.00% |           0      0.00%    100.00% |          14      0.00%    100.00%
system.ruby.L1Cache_Controller.S.L1_Replacement::total       461778                      
system.ruby.L1Cache_Controller.E.Load    |    10588976     98.80%     98.80% |           0      0.00%     98.80% |       32351      0.30%     99.10% |       32182      0.30%     99.40% |       31946      0.30%     99.70% |       31929      0.30%    100.00% |           0      0.00%    100.00% |           0      0.00%    100.00%
system.ruby.L1Cache_Controller.E.Load::total     10717384                      
system.ruby.L1Cache_Controller.E.Store   |        2373      7.48%      7.48% |           0      0.00%      7.48% |        7549     23.80%     31.29% |        7241     22.83%     54.12% |        7007     22.10%     76.21% |        7543     23.79%    100.00% |           0      0.00%    100.00% |           0      0.00%    100.00%
system.ruby.L1Cache_Controller.E.Store::total        31713                      
system.ruby.L1Cache_Controller.E.Inv     |         932      1.02%      1.02% |           0      0.00%      1.02% |       22581     24.63%     25.64% |       22908     24.98%     50.63% |       22889     24.96%     75.59% |       22379     24.41%    100.00% |           0      0.00%    100.00% |           0      0.00%    100.00%
system.ruby.L1Cache_Controller.E.Inv::total        91689                      
system.ruby.L1Cache_Controller.E.L1_Replacement |      237254     61.98%     61.98% |           0      0.00%     61.98% |          11      0.00%     61.99% |          21      0.01%     61.99% |          33      0.01%     62.00% |          29      0.01%     62.01% |           0      0.00%     62.01% |      145414     37.99%    100.00%
system.ruby.L1Cache_Controller.E.L1_Replacement::total       382762                      
system.ruby.L1Cache_Controller.E.Fwd_GETX |           0      0.00%      0.00% |           0      0.00%      0.00% |          66     26.19%     26.19% |          60     23.81%     50.00% |          55     21.83%     71.83% |          71     28.17%    100.00% |           0      0.00%    100.00% |           0      0.00%    100.00%
system.ruby.L1Cache_Controller.E.Fwd_GETX::total          252                      
system.ruby.L1Cache_Controller.E.Fwd_GETS |           1      0.02%      0.02% |           0      0.00%      0.02% |        1538     24.67%     24.68% |        1560     25.02%     49.70% |        1587     25.45%     75.16% |        1549     24.84%    100.00% |           0      0.00%    100.00% |           0      0.00%    100.00%
system.ruby.L1Cache_Controller.E.Fwd_GETS::total         6235                      
system.ruby.L1Cache_Controller.M.Load    |    33593708     99.99%     99.99% |           0      0.00%     99.99% |         446      0.00%    100.00% |         430      0.00%    100.00% |         443      0.00%    100.00% |         414      0.00%    100.00% |           0      0.00%    100.00% |           0      0.00%    100.00%
system.ruby.L1Cache_Controller.M.Load::total     33595441                      
system.ruby.L1Cache_Controller.M.Store   |    35575255     99.61%     99.61% |           0      0.00%     99.61% |       34969      0.10%     99.71% |       34905      0.10%     99.81% |       34589      0.10%     99.90% |       34808      0.10%    100.00% |           0      0.00%    100.00% |           0      0.00%    100.00%
system.ruby.L1Cache_Controller.M.Store::total     35714526                      
system.ruby.L1Cache_Controller.M.Inv     |         880      1.11%      1.11% |           0      0.00%      1.11% |       19753     24.87%     25.98% |       19764     24.89%     50.87% |       19430     24.47%     75.34% |       19572     24.65%     99.98% |           0      0.00%     99.98% |          13      0.02%    100.00%
system.ruby.L1Cache_Controller.M.Inv::total        79412                      
system.ruby.L1Cache_Controller.M.L1_Replacement |      313656     68.32%     68.32% |           0      0.00%     68.32% |          15      0.00%     68.32% |          17      0.00%     68.32% |          21      0.00%     68.33% |          23      0.01%     68.33% |           0      0.00%     68.33% |      145380     31.67%    100.00%
system.ruby.L1Cache_Controller.M.L1_Replacement::total       459112                      
system.ruby.L1Cache_Controller.M.Fwd_GETX |           1      0.01%      0.01% |           0      0.00%      0.01% |        1630     23.89%     23.90% |        1672     24.51%     48.41% |        1819     26.66%     75.07% |        1701     24.93%    100.00% |           0      0.00%    100.00% |           0      0.00%    100.00%
system.ruby.L1Cache_Controller.M.Fwd_GETX::total         6823                      
system.ruby.L1Cache_Controller.M.Fwd_GETS |           2      0.32%      0.32% |           0      0.00%      0.32% |         137     22.13%     22.46% |         156     25.20%     47.66% |         147     23.75%     71.41% |         154     24.88%     96.28% |           0      0.00%     96.28% |          23      3.72%    100.00%
system.ruby.L1Cache_Controller.M.Fwd_GETS::total          619                      
system.ruby.L1Cache_Controller.IS.Inv    |           0      0.00%      0.00% |           0      0.00%      0.00% |         279     24.37%     24.37% |         281     24.54%     48.91% |         304     26.55%     75.46% |         281     24.54%    100.00% |           0      0.00%    100.00% |           0      0.00%    100.00%
system.ruby.L1Cache_Controller.IS.Inv::total         1145                      
system.ruby.L1Cache_Controller.IS.L1_Replacement |           0      0.00%      0.00% |           0      0.00%      0.00% |           1      0.00%      0.00% |           0      0.00%      0.00% |           3      0.00%      0.00% |           0      0.00%      0.00% |           0      0.00%      0.00% |     1938616    100.00%    100.00%
system.ruby.L1Cache_Controller.IS.L1_Replacement::total      1938620                      
system.ruby.L1Cache_Controller.IS.Data_Exclusive |      240773     46.95%     46.95% |           0      0.00%     46.95% |       31745      6.19%     53.14% |       31790      6.20%     59.34% |       31571      6.16%     65.49% |       31571      6.16%     71.65% |           0      0.00%     71.65% |      145414     28.35%    100.00%
system.ruby.L1Cache_Controller.IS.Data_Exclusive::total       512864                      
system.ruby.L1Cache_Controller.IS.DataS_fromL1 |           8      0.12%      0.12% |           0      0.00%      0.12% |        1684     24.57%     24.69% |        1720     25.09%     49.78% |        1699     24.79%     74.57% |        1741     25.40%     99.97% |           0      0.00%     99.97% |           2      0.03%    100.00%
system.ruby.L1Cache_Controller.IS.DataS_fromL1::total         6854                      
system.ruby.L1Cache_Controller.IS.Data_all_Acks |      465528     94.31%     94.31% |           0      0.00%     94.31% |        7021      1.42%     95.73% |        6989      1.42%     97.15% |        6960      1.41%     98.56% |        7118      1.44%    100.00% |           0      0.00%    100.00% |           0      0.00%    100.00%
system.ruby.L1Cache_Controller.IS.Data_all_Acks::total       493616                      
system.ruby.L1Cache_Controller.IM.L1_Replacement |           0      0.00%      0.00% |           0      0.00%      0.00% |           4      0.00%      0.00% |           2      0.00%      0.00% |           5      0.00%      0.00% |           1      0.00%      0.00% |           0      0.00%      0.00% |     1999541    100.00%    100.00%
system.ruby.L1Cache_Controller.IM.L1_Replacement::total      1999553                      
system.ruby.L1Cache_Controller.IM.Data_all_Acks |      311954     61.04%     61.04% |           0      0.00%     61.04% |       13250      2.59%     63.63% |       13647      2.67%     66.30% |       13650      2.67%     68.97% |       13159      2.57%     71.55% |           0      0.00%     71.55% |      145416     28.45%    100.00%
system.ruby.L1Cache_Controller.IM.Data_all_Acks::total       511076                      
system.ruby.L1Cache_Controller.SM.Inv    |           0      0.00%      0.00% |           0      0.00%      0.00% |          42     18.10%     18.10% |          55     23.71%     41.81% |          69     29.74%     71.55% |          66     28.45%    100.00% |           0      0.00%    100.00% |           0      0.00%    100.00%
system.ruby.L1Cache_Controller.SM.Inv::total          232                      
system.ruby.L1Cache_Controller.SM.Ack    |           0      0.00%      0.00% |           0      0.00%      0.00% |         736     24.82%     24.82% |         721     24.32%     49.14% |         760     25.63%     74.77% |         748     25.23%    100.00% |           0      0.00%    100.00% |           0      0.00%    100.00%
system.ruby.L1Cache_Controller.SM.Ack::total         2965                      
system.ruby.L1Cache_Controller.SM.Ack_all |           0      0.00%      0.00% |           0      0.00%      0.00% |         736     24.82%     24.82% |         721     24.32%     49.14% |         760     25.63%     74.77% |         748     25.23%    100.00% |           0      0.00%    100.00% |           0      0.00%    100.00%
system.ruby.L1Cache_Controller.SM.Ack_all::total         2965                      
system.ruby.L1Cache_Controller.IS_I.Data_all_Acks |           0      0.00%      0.00% |           0      0.00%      0.00% |         279     24.37%     24.37% |         281     24.54%     48.91% |         304     26.55%     75.46% |         281     24.54%    100.00% |           0      0.00%    100.00% |           0      0.00%    100.00%
system.ruby.L1Cache_Controller.IS_I.Data_all_Acks::total         1145                      
system.ruby.L1Cache_Controller.M_I.Inv   |           0      0.00%      0.00% |           0      0.00%      0.00% |           1    100.00%    100.00% |           0      0.00%    100.00% |           0      0.00%    100.00% |           0      0.00%    100.00% |           0      0.00%    100.00% |           0      0.00%    100.00%
system.ruby.L1Cache_Controller.M_I.Inv::total            1                      
system.ruby.L1Cache_Controller.M_I.WB_Ack |      550910     65.44%     65.44% |           0      0.00%     65.44% |          25      0.00%     65.44% |          38      0.00%     65.45% |          54      0.01%     65.45% |          52      0.01%     65.46% |           0      0.00%     65.46% |      290794     34.54%    100.00%
system.ruby.L1Cache_Controller.M_I.WB_Ack::total       841873                      
system.ruby.L1Cache_Controller.SINK_WB_ACK.WB_Ack |           0      0.00%      0.00% |           0      0.00%      0.00% |           1    100.00%    100.00% |           0      0.00%    100.00% |           0      0.00%    100.00% |           0      0.00%    100.00% |           0      0.00%    100.00% |           0      0.00%    100.00%
system.ruby.L1Cache_Controller.SINK_WB_ACK.WB_Ack::total            1                      
system.ruby.L2Cache_Controller.L1_GET_INSTR       465507      0.00%      0.00%
system.ruby.L2Cache_Controller.L1_GETS         549324      0.00%      0.00%
system.ruby.L2Cache_Controller.L1_GETX         513973      0.00%      0.00%
system.ruby.L2Cache_Controller.L1_UPGRADE         3118      0.00%      0.00%
system.ruby.L2Cache_Controller.L1_PUTX         841873      0.00%      0.00%
system.ruby.L2Cache_Controller.L1_PUTX_old            1      0.00%      0.00%
system.ruby.L2Cache_Controller.L2_Replacement       389898      0.00%      0.00%
system.ruby.L2Cache_Controller.L2_Replacement_clean       504216      0.00%      0.00%
system.ruby.L2Cache_Controller.Mem_Data        850109      0.00%      0.00%
system.ruby.L2Cache_Controller.Mem_Ack         848768      0.00%      0.00%
system.ruby.L2Cache_Controller.WB_Data          80032      0.00%      0.00%
system.ruby.L2Cache_Controller.WB_Data_clean         6235      0.00%      0.00%
system.ruby.L2Cache_Controller.Ack              20303      0.00%      0.00%
system.ruby.L2Cache_Controller.Ack_all         112449      0.00%      0.00%
system.ruby.L2Cache_Controller.Unblock           6854      0.00%      0.00%
system.ruby.L2Cache_Controller.Exclusive_Unblock      1026905      0.00%      0.00%
system.ruby.L2Cache_Controller.NP.L1_GET_INSTR         3846      0.00%      0.00%
system.ruby.L2Cache_Controller.NP.L1_GETS       410192      0.00%      0.00%
system.ruby.L2Cache_Controller.NP.L1_GETX       436071      0.00%      0.00%
system.ruby.L2Cache_Controller.SS.L1_GET_INSTR       461631      0.00%      0.00%
system.ruby.L2Cache_Controller.SS.L1_GETS         1916      0.00%      0.00%
system.ruby.L2Cache_Controller.SS.L1_UPGRADE         2965      0.00%      0.00%
system.ruby.L2Cache_Controller.SS.L2_Replacement          342      0.00%      0.00%
system.ruby.L2Cache_Controller.SS.L2_Replacement_clean        20418      0.00%      0.00%
system.ruby.L2Cache_Controller.M.L1_GETS       115478      0.00%      0.00%
system.ruby.L2Cache_Controller.M.L1_GETX        67930      0.00%      0.00%
system.ruby.L2Cache_Controller.M.L2_Replacement       387469      0.00%      0.00%
system.ruby.L2Cache_Controller.M.L2_Replacement_clean       269437      0.00%      0.00%
system.ruby.L2Cache_Controller.MT.L1_GETS         6854      0.00%      0.00%
system.ruby.L2Cache_Controller.MT.L1_GETX         7075      0.00%      0.00%
system.ruby.L2Cache_Controller.MT.L1_PUTX       841873      0.00%      0.00%
system.ruby.L2Cache_Controller.MT.L2_Replacement         2079      0.00%      0.00%
system.ruby.L2Cache_Controller.MT.L2_Replacement_clean       169023      0.00%      0.00%
system.ruby.L2Cache_Controller.M_I.L1_GETS           27      0.00%      0.00%
system.ruby.L2Cache_Controller.M_I.L1_GETX           42      0.00%      0.00%
system.ruby.L2Cache_Controller.M_I.L1_PUTX_old            1      0.00%      0.00%
system.ruby.L2Cache_Controller.M_I.Mem_Ack       848768      0.00%      0.00%
system.ruby.L2Cache_Controller.MT_I.WB_Data         1171      0.00%      0.00%
system.ruby.L2Cache_Controller.MT_I.Ack_all          908      0.00%      0.00%
system.ruby.L2Cache_Controller.MCT_I.WB_Data        78242      0.00%      0.00%
system.ruby.L2Cache_Controller.MCT_I.Ack_all        90781      0.00%      0.00%
system.ruby.L2Cache_Controller.I_I.L1_GETS            3      0.00%      0.00%
system.ruby.L2Cache_Controller.I_I.Ack          19961      0.00%      0.00%
system.ruby.L2Cache_Controller.I_I.Ack_all        20418      0.00%      0.00%
system.ruby.L2Cache_Controller.S_I.Ack            342      0.00%      0.00%
system.ruby.L2Cache_Controller.S_I.Ack_all          342      0.00%      0.00%
system.ruby.L2Cache_Controller.ISS.L1_GETS        12806      0.00%      0.00%
system.ruby.L2Cache_Controller.ISS.L1_GETX          189      0.00%      0.00%
system.ruby.L2Cache_Controller.ISS.L2_Replacement_clean        28318      0.00%      0.00%
system.ruby.L2Cache_Controller.ISS.Mem_Data       397386      0.00%      0.00%
system.ruby.L2Cache_Controller.IS.L1_GET_INSTR           30      0.00%      0.00%
system.ruby.L2Cache_Controller.IS.L1_GETS         1726      0.00%      0.00%
system.ruby.L2Cache_Controller.IS.L2_Replacement_clean         2968      0.00%      0.00%
system.ruby.L2Cache_Controller.IS.Mem_Data        16652      0.00%      0.00%
system.ruby.L2Cache_Controller.IM.L1_GETS          234      0.00%      0.00%
system.ruby.L2Cache_Controller.IM.L1_GETX         2588      0.00%      0.00%
system.ruby.L2Cache_Controller.IM.L2_Replacement_clean        13229      0.00%      0.00%
system.ruby.L2Cache_Controller.IM.Mem_Data       436071      0.00%      0.00%
system.ruby.L2Cache_Controller.SS_MB.L1_GETS            2      0.00%      0.00%
system.ruby.L2Cache_Controller.SS_MB.L1_GETX           35      0.00%      0.00%
system.ruby.L2Cache_Controller.SS_MB.L1_UPGRADE          153      0.00%      0.00%
system.ruby.L2Cache_Controller.SS_MB.L2_Replacement            8      0.00%      0.00%
system.ruby.L2Cache_Controller.SS_MB.L2_Replacement_clean           34      0.00%      0.00%
system.ruby.L2Cache_Controller.SS_MB.Exclusive_Unblock         2965      0.00%      0.00%
system.ruby.L2Cache_Controller.MT_MB.L1_GETS           53      0.00%      0.00%
system.ruby.L2Cache_Controller.MT_MB.L1_GETX           43      0.00%      0.00%
system.ruby.L2Cache_Controller.MT_MB.L2_Replacement_clean          760      0.00%      0.00%
system.ruby.L2Cache_Controller.MT_MB.Exclusive_Unblock      1023940      0.00%      0.00%
system.ruby.L2Cache_Controller.MT_IIB.L1_GETS           32      0.00%      0.00%
system.ruby.L2Cache_Controller.MT_IIB.L2_Replacement_clean           28      0.00%      0.00%
system.ruby.L2Cache_Controller.MT_IIB.WB_Data           50      0.00%      0.00%
system.ruby.L2Cache_Controller.MT_IIB.WB_Data_clean          204      0.00%      0.00%
system.ruby.L2Cache_Controller.MT_IIB.Unblock         6600      0.00%      0.00%
system.ruby.L2Cache_Controller.MT_IB.L1_GETS            1      0.00%      0.00%
system.ruby.L2Cache_Controller.MT_IB.L2_Replacement_clean            1      0.00%      0.00%
system.ruby.L2Cache_Controller.MT_IB.WB_Data          569      0.00%      0.00%
system.ruby.L2Cache_Controller.MT_IB.WB_Data_clean         6031      0.00%      0.00%
system.ruby.L2Cache_Controller.MT_SB.Unblock          254      0.00%      0.00%

---------- End Simulation Statistics   ----------
